<?xml version="1.0" encoding="UTF-8"?>

<!-- generated on Sat Jun 19 17:37:25 2021 by Eclipse SUMO duarouter Version v1_1_0+0000-2147d155b1
<configuration xmlns:xsi="http://www.w3.org/2001/XMLSchema-instance" xsi:noNamespaceSchemaLocation="http://sumo.dlr.de/xsd/duarouterConfiguration.xsd">

    <input>
        <net-file value="gharrafa.net.xml"/>
        <route-files value="trips.trips.xml"/>
    </input>

    <output>
        <output-file value="gharaffa_random_0.rou.xml"/>
        <alternatives-output value="gharaffa_random_0.rou.alt.xml"/>
    </output>

    <time>
        <begin value="0"/>
        <end value="3600"/>
    </time>

    <report>
        <no-warnings value="true"/>
        <ignore-errors value="true"/>
        <no-step-log value="true"/>
    </report>

</configuration>
-->

<routes xmlns:xsi="http://www.w3.org/2001/XMLSchema-instance" xsi:noNamespaceSchemaLocation="http://sumo.dlr.de/xsd/routes_file.xsd">
    <vehicle id="0" depart="0.00">
        <route edges="11889 11880 12262 12388 -12387 11784 11923 11800 12020 11998 11866 7669 7544 7671 7684 7685 7686 7687 7680 7681 7682 7673 7621 6124 7560 7555 7556 7548 7557 7578 7584 7571 7569 7570 7576"/>
    </vehicle>
    <vehicle id="2" depart="2.00">
        <route edges="-6488 -1184 6208 7597 7603 7593 7594 7574 7550 7552 7553 7564 7543 7670 7544 7671 7684 7685 7686 7687 7680 7681 7682 7673 7622 7638 7666"/>
    </vehicle>
    <vehicle id="3" depart="3.00">
        <route edges="12283 12130 12203 11923 11800 12020 11998 11866 7669 7544 7671 7684 7685 7686 7687 7680 7681 7682 7673 7621 6124 7560 7555 7556 7548 7549"/>
    </vehicle>
    <vehicle id="5" depart="5.00">
        <route edges="-8103 7746 7774 7780 7778 7761 7793 7794 7800 5305 7802 8030 8031"/>
    </vehicle>
    <vehicle id="6" depart="6.00">
        <route edges="7569 7570 7585 7580 7591 7593 7594 7574 7550 7552 7553 7564 7543 7670 7544 7671 7684 7685 7686 7687 7680 7681 7682 7673 7622 7638 -7638 7623"/>
    </vehicle>
    <vehicle id="7" depart="7.00">
        <route edges="7594 7574 7550 7552 7553 7564 7543 7670"/>
    </vehicle>
    <vehicle id="9" depart="9.00">
        <route edges="12338 7675 7686 7687 7680 7681 7682 7673 7621 6124 7560 7555 7556 7548 7557 7578 7579 7580 7586 7577 7587 7588"/>
    </vehicle>
    <vehicle id="11" depart="11.00">
        <route edges="7543 7670 7544 7671 7684 7685 7686 7687 7680 7681 7682 7673 7622 7638 7666 -2399"/>
    </vehicle>
    <vehicle id="12" depart="12.00">
        <route edges="7560 7555 7561 7796 5484 5485 7798 7799 7762 7763 7764 -7749 8103"/>
    </vehicle>
    <vehicle id="14" depart="14.00">
        <route edges="-7749 -2436 3721 7690 7682 7673 7621 6124 7560 7555 7561 7796 5484 5485 7798 7799 7762"/>
    </vehicle>
    <vehicle id="15" depart="15.00">
        <route edges="10324 7574 7550 7552 7553 7554 7555 7556 7548 7557 7578 7579 7580 7581 7592 7596 6208 7597 7598"/>
    </vehicle>
    <vehicle id="16" depart="16.00">
        <route edges="7596 6208 7597 7603 7593 7594 7574 7550 7552 7553 7564 7543 7668 -11866 11866"/>
    </vehicle>
    <vehicle id="17" depart="17.00">
        <route edges="7554 7555 7556 7548 7557 7578 7579 7580 7586 7577 7587 7588"/>
    </vehicle>
    <vehicle id="19" depart="19.00">
        <route edges="-11866 11866 7669 7544 7671 7684 7685 7686 7687 7680 7681 7682 7673 7622 7638 7666 -2399 7644 -7643"/>
    </vehicle>
    <vehicle id="21" depart="21.00">
        <route edges="11869 11840 11889 11880 12262 12388 -12387 11784 11923 11800 12020 11998 11866 7669 7544 7671 7684 7685 7686 7687 7680 7689 8084 3722"/>
    </vehicle>
    <vehicle id="22" depart="22.00">
        <route edges="7665 7666 -2399 7644 -7643"/>
    </vehicle>
    <vehicle id="23" depart="23.00">
        <route edges="6522 6489 5485 7801 8030 8032 6119"/>
    </vehicle>
    <vehicle id="24" depart="24.00">
        <route edges="7760 7780 7778 7761 7793 7794 7800 5305 7802 8030 8032 6119"/>
    </vehicle>
    <vehicle id="25" depart="25.00">
        <route edges="6539 6123 7537 7540 7539 6511 7542 7547 7548 7557 7578 7579 7580 7586"/>
    </vehicle>
    <vehicle id="26" depart="26.00">
        <route edges="-7643 7643 -7644"/>
    </vehicle>
    <vehicle id="27" depart="27.00">
        <route edges="6489 5485 7798 7799 7762 7642 7643 -7644 -2547 7665 -7638 7623 6124 7560 7555 7556 7548 7557 7578 7579 7580"/>
    </vehicle>
    <vehicle id="28" depart="28.00">
        <route edges="7596 6208 7597 7603 7593 7594 7566 -6487 5652 10393 10468 10469 10466 10464 5654"/>
    </vehicle>
    <vehicle id="30" depart="30.00">
        <route edges="7681 7682 7673 7621 6124 7560 7555 7556 7548 7557 7578 7579 7580 7586"/>
    </vehicle>
    <vehicle id="31" depart="31.00">
        <route edges="6045 7596 6208 7597 7603 7593 7594 7574 7550 7552 7553 7564 7543 7668 -11866 -11998 12051 12130 11902 12387"/>
    </vehicle>
    <vehicle id="32" depart="32.00">
        <route edges="7577 7587 7588 7592 7596 6208 7597 7603 7593 7594 7574 7550 7552 7553 7554 7555 7561 7796 5484 5485 7798 7799 7762 7763 8101"/>
    </vehicle>
    <vehicle id="33" depart="33.00">
        <route edges="7684 7685 7686 7687 7680 7681 7682 7673 7621 6124 7560 7555 7556 7548 7549 7550 7552 7553 7564 7543 7668 -11866"/>
    </vehicle>
    <vehicle id="35" depart="35.00">
        <route edges="7556 7548 7549 7550 7559 6526 10391 10392 10466"/>
    </vehicle>
    <vehicle id="38" depart="38.00">
        <route edges="7543 7670 7544 7671 7684 7685 7686 7687 7680 7681 7682 7673 7621 6124 7560 7555 7556 7548 7557 7578 7579"/>
    </vehicle>
    <vehicle id="40" depart="40.00">
        <route edges="7588 7592 7596 6208 7597 7603 7593 7594 7574 7550 7552 7553 7554 7555 7556 7548 7557 7578 7579 7580 7591"/>
    </vehicle>
    <vehicle id="41" depart="41.00">
        <route edges="7596 6208 7597 7603 7593 7594 7574 7550 7552 7553 7564 7543 7670 7544 7671 7684 7685 7686"/>
    </vehicle>
    <vehicle id="42" depart="42.00">
        <route edges="10464 5654 -6487"/>
    </vehicle>
    <vehicle id="43" depart="43.00">
        <route edges="6489 5485 7798 5304 5305"/>
    </vehicle>
    <vehicle id="44" depart="44.00">
        <route edges="7644 -7643 -7642 7763 7770"/>
    </vehicle>
    <vehicle id="47" depart="47.00">
        <route edges="6040 7593 7594 7574 7550 7552 7553 7554 7555 7561 7796 5484 5485 7798 7799"/>
    </vehicle>
    <vehicle id="51" depart="51.00">
        <route edges="7556 7548 7549 7550 7552 7553 7564 7543 7670 7544 7671 7684 7685 7686 7687 7680"/>
    </vehicle>
    <vehicle id="55" depart="55.00">
        <route edges="6045 7596 6208 7597 7603 7593 7594 7574 7550 7552 7553 7554 7555 7561 7796 5484 5485 7801"/>
    </vehicle>
    <vehicle id="57" depart="57.00">
        <route edges="7597 7603 7593 7594 7574 7550 7552 7553 7554 7555 7561 7796 5484 5485 7798 7799 7762 7763 8101 -8103 -2436"/>
    </vehicle>
    <vehicle id="59" depart="59.00">
        <route edges="7593 7594 7574 7550 7552 7553 7564 7543 7670 7544"/>
    </vehicle>
    <vehicle id="60" depart="60.00">
        <route edges="7682 7673 7622 7638 7666 -2399 7644 -7643"/>
    </vehicle>
    <vehicle id="61" depart="61.00">
        <route edges="-12388 12108 11840 11889 11880 12262 12388 -12387 11784 11923 11800 12020 11998 11866 7669 7544 7671 7684 7685 7686 7687 7680 7681 7682 7673 7621 6124 7560 7555 7556 7548 7557 7578 7579 7580 7586 7577 7589 -6488 -1184"/>
    </vehicle>
    <vehicle id="62" depart="62.00">
        <route edges="7579 7580 7591 7593 7594 7574 7550 7552 7553 7564 7543 7670 7544 7671 7684 7685 7686 7687"/>
    </vehicle>
    <vehicle id="63" depart="63.00">
        <route edges="11840 11889 11880 12262 12388 -12387 11784 11923 11800 12020 11998 11866 7669 7544 7671 7684 7685 7686 7687 7680 7689 8084 3721"/>
    </vehicle>
    <vehicle id="64" depart="64.00">
        <route edges="7546 6511 7542 7547 7548 7549 7550 7552 7553 7564 7543 7668 -11866 -11998 12051 12130 11902 12387 -12388 12108 11840 11889 11880 11869"/>
    </vehicle>
    <vehicle id="65" depart="65.00">
        <route edges="7563 7543 7670 7544 7671 7684 7685 7686 7687 7680 7681 7682 7673 7621 6124 7560 7555 7561 7796 7646"/>
    </vehicle>
    <vehicle id="66" depart="66.00">
        <route edges="7623 6124 7560 7555 7556 7548 7549 7550 7552 7553 7564 7543 7668 -11866 -11998 12051 12130 12203 11923 11800 12283"/>
    </vehicle>
    <vehicle id="68" depart="68.00">
        <route edges="7617 6040 7593 7594 7574 7550 7552 7553 7554 7555 7556 7548 7549"/>
    </vehicle>
    <vehicle id="71" depart="71.00">
        <route edges="7584 7571 7569 7570 7585 7580 7591 7593 7594 7574 7550 7552 7553 7554 7555 7561 7796 5484 5485 7798 7799 7762 7763 7770 7778"/>
    </vehicle>
    <vehicle id="74" depart="74.00">
        <route edges="7523 7537 7540 7539 6511 7542 7547 7548 7549 7550 7552 7553 7564 7543 7670 7544 7671 7684 7685 7686 7687 7680"/>
    </vehicle>
    <vehicle id="75" depart="75.00">
        <route edges="7617 6040 7593 7594 7574 7550 7559 6526 10389"/>
    </vehicle>
    <vehicle id="77" depart="77.00">
        <route edges="7543 7670 7544 7671 7684 7685 7686 7687 7680 7681 7682 7673 7621 6124 7560 7555 7561 7796 5484 5485 7801 8030 8032 6119 6121"/>
    </vehicle>
    <vehicle id="78" depart="78.00">
        <route edges="7560"/>
    </vehicle>
    <vehicle id="79" depart="79.00">
        <route edges="7642 -7642 7763 7770"/>
    </vehicle>
    <vehicle id="80" depart="80.00">
        <route edges="7546 6511 7542 7547 7548 7549 7550 7552 7553 7564 7543 7670 7544 7671 7684 7685 7686 7687 7680 7689 8084 3722 8103"/>
    </vehicle>
    <vehicle id="83" depart="83.00">
        <route edges="7576 7577 7587 7588 6044 6039 7359"/>
    </vehicle>
    <vehicle id="84" depart="84.00">
        <route edges="7523 7537 7540 7539 6511 7545 6526 10391 10392 10466 10467 10393 10394"/>
    </vehicle>
    <vehicle id="85" depart="85.00">
        <route edges="7552 7553 7554 7555 7556 7548 7557 7578 7579 7580 7591"/>
    </vehicle>
    <vehicle id="86" depart="86.00">
        <route edges="7535 6123 7537 7540 7539 6511 7542 7547 7548 7557 7578 7579 7580 7591 7593"/>
    </vehicle>
    <vehicle id="87" depart="87.00">
        <route edges="-11998 11998 11866 7669 7544 7671 7684 7685 7686 7687 7680 7681 7682 7673 7622 7638 7666 -2399"/>
    </vehicle>
    <vehicle id="90" depart="90.00">
        <route edges="1153 7575 7570 7585 7580 7591 7593 7594 7574 7550 7552 7553 7564 7543 7668 -11866 -11998 12051 12130 11902"/>
    </vehicle>
    <vehicle id="92" depart="92.00">
        <route edges="7683 7684 7685 7686 7687 7680 7681 7682 7673 7621 6124 7560 7555 7556 7548 7549 7550 7552 7553 7564 7543 7668 -11866 -11998 12051 12130 12203 11923 11800"/>
    </vehicle>
    <vehicle id="94" depart="94.00">
        <route edges="7670 7544 7671 7684 7685 7686 7687 7680 7681 7682 7673 7621 6124 7560 7555 7556 7548 7549 7550 7552 7553 7564 7543 7668 -11866 -11998 12051 12130 12203 11923 11800 12283"/>
    </vehicle>
    <vehicle id="96" depart="96.00">
        <route edges="7689 8084 3721 7690 7682 7673 7621 6124 7560 7555 7556 7548 7557 7578 7579 7580 7581 7592 7596 6208 7597 7598 7600"/>
    </vehicle>
    <vehicle id="97" depart="97.00">
        <route edges="7770 7778 7761 -7769 7642 7643 -7644 -2547 7665 -7638 7623 6124 7560 7555 7556 7548 7549 7550 7552 7553 7564 7543 7668 -11866 -11998 12051 12130 11902 12387"/>
    </vehicle>
    <vehicle id="98" depart="98.00">
        <route edges="3721 7690 7682 7673 7621 6124 7560 7555 7556 7548 7557 7578 7579 7580 7586 7577 7589 -6488 -1184"/>
    </vehicle>
    <vehicle id="99" depart="99.00">
        <route edges="12130 12203 11923 11800 12020 11998 11866 7669 7544 7671 7684 7685 7686 7687 7680 7681 7682 7673 7621 6124 7560 7555 7561 7796 5484 5485 7801 8030 8032 7531"/>
    </vehicle>
    <vehicle id="100" depart="100.00">
        <route edges="12388 -12387 11784 11923 11800 12020 11998 11866 7669 7544 7671 7684 7685 7686 7687 7680 7681 7682 7673 7621 6124 7560 7555 7556 7548 7557"/>
    </vehicle>
    <vehicle id="102" depart="102.00">
        <route edges="10424 6046 7594 7574 7550 7552 7553 7564 7543 7668 -11866 11866"/>
    </vehicle>
    <vehicle id="104" depart="104.00">
        <route edges="7549 7550 7552 7553 7554 7555 7561 7796 5484 5485 7798 7799"/>
    </vehicle>
    <vehicle id="106" depart="106.00">
        <route edges="6124 7560 7555 7556 7548 7557"/>
    </vehicle>
    <vehicle id="107" depart="107.00">
        <route edges="7564 7543 7668 -11866 -11998 12051 12130 11902 12387 -12388 12108 11840"/>
    </vehicle>
    <vehicle id="108" depart="108.00">
        <route edges="7681 7682 7673 7621 6124 7560 7555 7556 7548 7549 7550 7552 7553 7564 7543 7668 -11866 -11998 12051 12130"/>
    </vehicle>
    <vehicle id="110" depart="110.00">
        <route edges="7565 7796 5484 5485 7798 7799 7762 7642 7643 -7644 -2547 7665 -7638 7623 6124 7560 7555 7556"/>
    </vehicle>
    <vehicle id="111" depart="111.00">
        <route edges="7535 6123 7537 7540 7539 6511 7542 7547 7548 7549 7550 7552 7553 7564 7543 7670"/>
    </vehicle>
    <vehicle id="112" depart="112.00">
        <route edges="11902 12387 -12387 11784"/>
    </vehicle>
    <vehicle id="113" depart="113.00">
        <route edges="8112 7535 6123 7537 7540 7539 6511 7542 7547 7548 7557 7578 7579 7580 7581 7592 7596 6208"/>
    </vehicle>
    <vehicle id="115" depart="115.00">
        <route edges="5323 6513 7546 6511 7542 7547 7548 7549 7550 7552 7553 7554 7555 7561 7796 5484 5485 7801 8030 8032 6119 6116"/>
    </vehicle>
    <vehicle id="116" depart="116.00">
        <route edges="8084 3721 7690 7682 7673 7621 6124 7560 7555 7556 7548 7549 7550 7552 7553 7564 7543 7668 -11866 -11998 12051 12130 11902"/>
    </vehicle>
    <vehicle id="118" depart="118.00">
        <route edges="12203 11923 11800 12020 11998 11866 7669 7544 7671 7684 7685 7686 7687 7680 7681 7682 7673 7621 6124 7560 7555 7556 7548 7549 7550 7559 6526 10391 10392 10466 10467 10393"/>
    </vehicle>
    <vehicle id="119" depart="119.00">
        <route edges="7575 7570 7585 7580 7591 7593 7594 7574 7550 7552 7553 7554 7555 7561 7796 5484 5485 7798 7799 7762 7763 7770 7778 7761"/>
    </vehicle>
    <vehicle id="120" depart="120.00">
        <route edges="7569 7570 7585 7580 7581 6044 6039"/>
    </vehicle>
    <vehicle id="123" depart="123.00">
        <route edges="6124 7560 7555 7561 7796 5484 5485 7798 5304 5305 7803"/>
    </vehicle>
    <vehicle id="124" depart="124.00">
        <route edges="-11866 11866 7669 7544 7671 7684 7685 7686 7687 7680 7681 7682 7673 7621 6124 7560 7555 7556 7548 7557 7578 7579 7580 7581 7592 7596 1184"/>
    </vehicle>
    <vehicle id="125" depart="125.00">
        <route edges="7798 7799 7762 7763"/>
    </vehicle>
    <vehicle id="126" depart="126.00">
        <route edges="7770 7778 7761 -7769 7642 7643 -7644 -2547 7665 -7638 7623 6124 7560 7555 7556 7548 7549 7550 7552 7553 7564 7543 7668 -11866 -11998 12051 12130 11902 12387 -12387"/>
    </vehicle>
    <vehicle id="127" depart="127.00">
        <route edges="6513 7546 6511 7542 7547 7548 7549 7550 7552 7553 7564 7543 7670 7544 7671 7684 7685 7686 7687 7680 7689 8084 3722"/>
    </vehicle>
    <vehicle id="128" depart="128.00">
        <route edges="-1184 6208 7597 7603 7593 7594 7574 7550 7552 7553 7554 7555 7561 7796 5484 5485 7801 8030 8032"/>
    </vehicle>
    <vehicle id="129" depart="129.00">
        <route edges="7542 7547 7548 7549 7550 7552 7553 7564 7543 7668 -11866 -11998 12051 12130"/>
    </vehicle>
    <vehicle id="130" depart="130.00">
        <route edges="6511 7542 7547 7548 7549 7550 7552 7553 7554 7555 7561 7796 7646"/>
    </vehicle>
    <vehicle id="132" depart="132.00">
        <route edges="7778 7761 -7769 7642 7643 -7644 -2547 7665 -7638 7623 6124 7560 7555 7556 7548 7549 7550"/>
    </vehicle>
    <vehicle id="133" depart="133.00">
        <route edges="8103 -8102 7770 7778 7761 7793 7794 7800 5305 7802 8030 8032 7531"/>
    </vehicle>
    <vehicle id="135" depart="135.00">
        <route edges="6042 6045 7596 6208 7597 7603 7593 7594 7574 7550 7552 7553 7564 7543 7670 7544 7671 7684 7685 7686 7687 7680 7681 7682 7673 7621 6124 7560"/>
    </vehicle>
    <vehicle id="137" depart="137.00">
        <route edges="-1317 7590 7588 7592 7596 6208 7597 7603 7593 7594 7574 7550 7552 7553 7554 7555 7556 7548 7557 7578 7579 7580 7591"/>
    </vehicle>
    <vehicle id="138" depart="138.00">
        <route edges="7798 7799 7762 7642 7643 -7644 -2547 7665 -7638 7623 6124 7560 7555 7556 7548 7549 7550 7552 7553 7564 7543 7670"/>
    </vehicle>
    <vehicle id="139" depart="139.00">
        <route edges="11902 12387 -12387 11784 11923 11800 12020 11998 11866 7669 7544 7671 7684 7685 7686 7687 7680 7689 8084 3722 8103 -8102 7770 7778 7761 7793"/>
    </vehicle>
    <vehicle id="142" depart="142.00">
        <route edges="12108 11840 11889 11880 12262 12388 -12387 11784"/>
    </vehicle>
    <vehicle id="144" depart="144.00">
        <route edges="7543 7668 -11866"/>
    </vehicle>
    <vehicle id="146" depart="146.00">
        <route edges="-6208 6208 7597 7603 7593 7594 7574 7550 7552 7553 7554 7555 7561 7796"/>
    </vehicle>
    <vehicle id="147" depart="147.00">
        <route edges="8101 -8103 -2436 3721 7690 7682 7673"/>
    </vehicle>
    <vehicle id="148" depart="148.00">
        <route edges="12203 11923 11800 12020 11998 11866 7669 7544 7671 7684 7674 11548"/>
    </vehicle>
    <vehicle id="150" depart="150.00">
        <route edges="7585 7580 7591 7593 7594 7574 7550 7552 7553 7554 7555 7561 7796 5484 5485 7798 7799 7762"/>
    </vehicle>
    <vehicle id="151" depart="151.00">
        <route edges="7591 7593 7594 7574 7550 7552 7553 7554 7555 7561 7796 5484 5485 7798 5304 5305 7803"/>
    </vehicle>
    <vehicle id="152" depart="152.00">
        <route edges="-8103 -2436 3721 7690 7682 7673 7621 6124 7560 7555 7556 7548 7557 7578 7579 7580 7591 7593 7594 7566 -6487 5652"/>
    </vehicle>
    <vehicle id="154" depart="154.00">
        <route edges="-7638 7623 6124 7560 7555 7556 7548 7549 7550 7552 7553 7564 7543 7670 7544 7671 7684 7674 11548"/>
    </vehicle>
    <vehicle id="155" depart="155.00">
        <route edges="7556 7548 7549 7550 7552 7553 7554 7555 7561 7796"/>
    </vehicle>
    <vehicle id="156" depart="156.00">
        <route edges="7550 7552 7553 7554 7555 7561 7796 5484 5485 7798 7799 7762 7763"/>
    </vehicle>
    <vehicle id="157" depart="157.00">
        <route edges="12051 12130 12203 11923 11800 12020 11998 11866 7669 7544 7671 7684 7685 7686 7687 7680 7681 7682 7673 7621 6124 7560 7555 7556 7548 7549 7550 7552 7553 7564 7543 7668"/>
    </vehicle>
    <vehicle id="158" depart="158.00">
        <route edges="6208 7597 7603 7593 7594 7566"/>
    </vehicle>
    <vehicle id="159" depart="159.00">
        <route edges="8112 7535 6123 7537 7540 7539 6511 7542 7547 7548 7549 7550 7552 7553 7564 7543 7668 -11866 -11998 12051"/>
    </vehicle>
    <vehicle id="160" depart="160.00">
        <route edges="10342.0 10423 10424 6046 7594 7574 7550 7552 7553 7554 7555 7561 7796 5484 5485 7798 5304 5305"/>
    </vehicle>
    <vehicle id="161" depart="161.00">
        <route edges="-1317 7590 7588 7592 7596 6208 7597 7603 7593 7594 7574 7550 7552 7553 7554 7555 7561 7796 5484 5485 7798 7799 7762 7642 7643 -7644"/>
    </vehicle>
    <vehicle id="162" depart="162.00">
        <route edges="11902 12387 -12387 11784 11923 11800 12020 11998 11866 7669 7544 7671 7684 7685 7686 7687 7680 7681 7682 7673 7621 6124 7560 7555 7556 7548 7549 7550 7552 7553 7564"/>
    </vehicle>
    <vehicle id="166" depart="166.00">
        <route edges="-7642 7763 8101 -8103 -2436 3721 7690 7682 7673 7621 6124 7560 7555 7556 7548 7557 7578 7579 7580 7581 7592 7596 1184 -1317"/>
    </vehicle>
    <vehicle id="167" depart="167.00">
        <route edges="7668 -11866 11866 7669 7544 7671 7684 7685 7686 7687 7680 7689 8084 3722 8103 -8102 7770 7778 7761 7793"/>
    </vehicle>
    <vehicle id="168" depart="168.00">
        <route edges="7666 7665 -7638 7623 6124 7560 7555 7556 7548 7557 7578 7579 7580 7581 7592 7596 6208 7597 7598 7600"/>
    </vehicle>
    <vehicle id="171" depart="171.00">
        <route edges="7565 7796 5484 5485 7798 7799 7762 7763 7764 -7749 8103"/>
    </vehicle>
    <vehicle id="173" depart="173.00">
        <route edges="7770 7778 7761 -7769 7763 8101"/>
    </vehicle>
    <vehicle id="175" depart="175.00">
        <route edges="7543 7670 7544 7671 7684 7685 7686 7687 7680 7681 7682 7673 7621 6124 7560 7555 7556 7548 7549 7550 7559 6526 10391 10392"/>
    </vehicle>
    <vehicle id="176" depart="176.00">
        <route edges="7542 7547 7548 7557 7578 7584 7571 7569"/>
    </vehicle>
    <vehicle id="177" depart="177.00">
        <route edges="7623 6124 7560 7555 7561 7796 5484 5485 7798 7799 7762 7763 7764 7774"/>
    </vehicle>
    <vehicle id="179" depart="179.00">
        <route edges="7553 7564 7543 7670 7544 7671 7684 7685 7686 7687 7680 7689 8084 3721 7690"/>
    </vehicle>
    <vehicle id="180" depart="180.00">
        <route edges="-7642 7763 7770 7778 7761 -7769 7642 7643 -7644 -2547 7665 -7638"/>
    </vehicle>
    <vehicle id="183" depart="183.00">
        <route edges="6045 7596 6208 7597 7603 7593 7594 7574 7550 7552 7553 7554 7555 7561 7796 5484 5485 7798 5304 5305 7803"/>
    </vehicle>
    <vehicle id="184" depart="184.00">
        <route edges="5323 6513 7546 6511 7542 7547 7548 7549 7550 7552 7553 7564 7543 7668 -11866 -11998 12051 12130 11902"/>
    </vehicle>
    <vehicle id="185" depart="185.00">
        <route edges="7591 7593 7594 7574 7550 7552 7553 7554 7555 7561 7796 5484 5485"/>
    </vehicle>
    <vehicle id="186" depart="186.00">
        <route edges="7560 7555 7556 7548 7557 7578 7584 7571 7569"/>
    </vehicle>
    <vehicle id="187" depart="187.00">
        <route edges="7778 7761 -7769 7642 7643 -7644 -2547 7665 -7638 7623 6124 7560 7555 7556 7548 7549 7550 7552 7553 7564"/>
    </vehicle>
    <vehicle id="188" depart="188.00">
        <route edges="7780 -7770 8101 -8103 -2436 3721 7690 7682 7683 7684 7685 7686 7688 7677"/>
    </vehicle>
    <vehicle id="189" depart="189.00">
        <route edges="7561 7796 5484 5485 7798 7799 7762 7642 7643 -7644 -2547 7665 -7638 7623 6124 7560 7555 7556 7548 7557 7578 7579 7580 7581 6044 6039"/>
    </vehicle>
    <vehicle id="190" depart="190.00">
        <route edges="6483 6539 6123 7537 7540 7539 6511 7542 7547 7548 7549 7550 7552 7553 7564 7543 7670 7544 7671 7684 7685 7686 7687 7680 7689 8084 3721"/>
    </vehicle>
    <vehicle id="191" depart="191.00">
        <route edges="7554 7555 7556 7548 7549 7550 7552 7553 7564 7543 7668 -11866 -11998 12051 12130"/>
    </vehicle>
    <vehicle id="192" depart="192.00">
        <route edges="7799 7762 7642 7643 -7644 -2547 7665 -7638 7623 6124 7560 7555 7556 7548 7549 7550 7552 7553 7564 7543 7668 -11866 -11998 12051 12130 12203"/>
    </vehicle>
    <vehicle id="193" depart="193.00">
        <route edges="7579 7580 7591 7593 7594 7574 7550 7552 7553 7564 7543 7670 7544 7672"/>
    </vehicle>
    <vehicle id="194" depart="194.00">
        <route edges="5323 6513 7546 6511 7542 7547 7548 7557 7578 7584 7571 7572"/>
    </vehicle>
    <vehicle id="196" depart="196.00">
        <route edges="7544 7671 7684 7685 7686 7687 7680 7681 7682 7673 7621 6124 7560 7555 7556 7548 7549 7550 7552 7553 7564 7543 7668 -11866 -11998 12051 12130 11902 12387 -12388 12108 11840 11889 11880 12262"/>
    </vehicle>
    <vehicle id="198" depart="198.00">
        <route edges="11840 11889 11880 12262 12388 -12387 11784 11923 11800 12020 11998 11866 7669 7544 7671 7684 7685 7686 7687 7680 7689 8084 3722 8103 -8102 7764 7774"/>
    </vehicle>
    <vehicle id="200" depart="200.00">
        <route edges="7646 5304 5305 7803"/>
    </vehicle>
    <vehicle id="201" depart="201.00">
        <route edges="7685 7686 7687 7680 7689 8084 3722 8103 -8102 7770"/>
    </vehicle>
    <vehicle id="202" depart="202.00">
        <route edges="7548 7557 7578 7584 7571"/>
    </vehicle>
    <vehicle id="204" depart="204.00">
        <route edges="7557 7578 7579 7580 7591 7593 7594 7574 7550 7552 7553 7554 7555 7556 7548"/>
    </vehicle>
    <vehicle id="205" depart="205.00">
        <route edges="7575 7570 7585 7580 7591 7593 7594 7574 7550 7552 7553 7564 7543"/>
    </vehicle>
    <vehicle id="209" depart="209.00">
        <route edges="7569 7570 7585 7580 7591 7593 7594 7574 7550 7552"/>
    </vehicle>
    <vehicle id="210" depart="210.00">
        <route edges="7760 7780 7778 7761 -7769 7642 7643 -7644 -2547 7665"/>
    </vehicle>
    <vehicle id="213" depart="213.00">
        <route edges="7577 7587 7588 7592 7596 6208 7597 7603 7593 7594 7574 7550 7552 7553 7554 7555 7561 7796 5484 5485"/>
    </vehicle>
    <vehicle id="214" depart="214.00">
        <route edges="11889 11880 12262 12388 -12387 11784 11923 11800 12020 11998 11866 7669 7544 7671 7684 7685 7686 7687 7680 7681 7682 7673 7621 6124 7560 7555 7556 7548 7549 7550 7552 7553 7564 7543"/>
    </vehicle>
    <vehicle id="215" depart="215.00">
        <route edges="12338 7675 7686 7688 7677"/>
    </vehicle>
    <vehicle id="216" depart="216.00">
        <route edges="11923 11800 12020 11998 11866 7669 7544 7671 7684 7685 7686 7687 7680 7681 7682 7673 7621 6124 7560 7555 7556 7548 7557 7578"/>
    </vehicle>
    <vehicle id="219" depart="219.00">
        <route edges="-12388 12108 11840 11889 11880 12262 12388 -12387 11784 11923 11800 12020 11998 11866 7669 7544 7671 7684 7685 7686 7687 7680 7681 7682 7673 7621 6124 7560 7555 7561 7796 5484 5485 7801 8030"/>
    </vehicle>
    <vehicle id="222" depart="222.00">
        <route edges="7565 7796 5484 5485 7798 7799"/>
    </vehicle>
    <vehicle id="223" depart="223.00">
        <route edges="7622 7638 -7638 7623 6124 7560 7555 7556"/>
    </vehicle>
    <vehicle id="224" depart="224.00">
        <route edges="7523 7537 7540 7539 6511 7542 7547 7548 7549 7550 7552 7553 7554 7555 7561 7796 5484 5485 7798 7799 7762 7763"/>
    </vehicle>
    <vehicle id="225" depart="225.00">
        <route edges="11889 11880 12262 12388 -12387 11784 11923 11800 12020 11998 11866 7669 7544 7671 7684 7685 7686 7687 7680 7681 7682 7673 7621 6124 7560 7555 7556 7548 7557 7578 7584 7571 7569 7570"/>
    </vehicle>
    <vehicle id="227" depart="227.00">
        <route edges="3721 7690 7682 7673 7621 6124 7560 7555 7556 7548 7549 7550 7559 6526 10391"/>
    </vehicle>
    <vehicle id="228" depart="228.00">
        <route edges="7686 7687 7680 7689 8084 3722 8103 -8102 7764 7774 7780 -7770"/>
    </vehicle>
    <vehicle id="229" depart="229.00">
        <route edges="7644 -7643 -7642 7763 8101 -8103 -2436"/>
    </vehicle>
    <vehicle id="230" depart="230.00">
        <route edges="7540 7539 6511 7542 7547 7548 7549 7550 7552 7553 7554 7555 7561 7796 5484"/>
    </vehicle>
    <vehicle id="233" depart="233.00">
        <route edges="5323 6513 7546 6511 7542 7547 7548 7549 7550 7552 7553 7564 7543 7670 7544 7671 7684 7685 7686 7687"/>
    </vehicle>
    <vehicle id="235" depart="235.00">
        <route edges="-12387 11784 11923 11800 12020 11998 11866 7669 7544 7671 7684 7685 7686 7687 7680 7681 7682 7673 7621 6124 7560 7555 7556 7548 7557 7578 7579 7580 7591 6041 10410"/>
    </vehicle>
    <vehicle id="236" depart="236.00">
        <route edges="7623 6124 7560 7555 7561 7796 5484 5485 7798 7799 7762 7642 7643 -7644 -2547 7665 -7638"/>
    </vehicle>
    <vehicle id="237" depart="237.00">
        <route edges="11889 11880 12262 12388 -12387 11784 11923 11800 12020 11998 11866 7669 7544 7671 7684 7685 7686 7687 7680 7681 7682 7673 7622 7638"/>
    </vehicle>
    <vehicle id="239" depart="239.00">
        <route edges="-7770 8101 -8103 -2436 3721 7690 7682 7673 7621 6124 7560 7555 7556 7548 7549 7550 7552 7553 7564 7543 7668 -11866 -11998 12051 12130 11902 12387 -12387"/>
    </vehicle>
    <vehicle id="241" depart="241.00">
        <route edges="7554 7555 7556 7548 7557 7578 7579 7580 7591 7593"/>
    </vehicle>
    <vehicle id="242" depart="242.00">
        <route edges="7586 7577 7587 7588 7592 7596 6208 7597 7603 7593 7594 7574 7550 7552 7553 7564 7543 7668"/>
    </vehicle>
    <vehicle id="243" depart="243.00">
        <route edges="7535 6123 7537 7540 7539 6511 7542 7547 7548 7549 7550 7552 7553 7564 7543 7670 7544 7671 7684 7674 11548"/>
    </vehicle>
    <vehicle id="245" depart="245.00">
        <route edges="-1184 6208 7597 7603 7593 7594 7574 7550 7552 7553 7554 7555 7561 7796 5484 5485 7798 7799 7762"/>
    </vehicle>
    <vehicle id="246" depart="246.00">
        <route edges="3722 8103 -8103 -2436 3721 7690 7682 7673 7621 6124 7560 7555 7556 7548 7557 7578 7579 7580 7581 7592 7596 6208 7597 7603"/>
    </vehicle>
    <vehicle id="247" depart="247.00">
        <route edges="-2436 3721 7690 7682 7673 7621 6124 7560 7555 7556 7548 7549 7550 7552 7553 7564 7543 7668 -11866 -11998 12051 12130 11902 12387 -12387"/>
    </vehicle>
    <vehicle id="248" depart="248.00">
        <route edges="8084 3721 7690 7682 7673 7621 6124 7560 7555 7556 7548 7549 7550"/>
    </vehicle>
    <vehicle id="249" depart="249.00">
        <route edges="8103 -8103 -2436 3721 7690 7682"/>
    </vehicle>
    <vehicle id="250" depart="250.00">
        <route edges="7592 7596 6208 7597 7603 7593 7594 7574 7550 7552 7553 7554 7555 7556 7548 7557 7578 7584 7571 7569 7570"/>
    </vehicle>
    <vehicle id="251" depart="251.00">
        <route edges="7617 6040 7593 7594 7574 7550 7552 7553 7554 7555 7561 7796 5484 5485"/>
    </vehicle>
    <vehicle id="252" depart="252.00">
        <route edges="12387 -12387 11784 11923 11800 12020 11998 11866 7669 7544 7671 7684 7685 7686 7687 7680 7689 8084 3722 8103 -8102 7764 7774 7780 -7770 8101"/>
    </vehicle>
    <vehicle id="253" depart="253.00">
        <route edges="7680 7681 7682 7673 7621 6124 7560 7555 7556 7548 7557 7578 7584 7571 7569"/>
    </vehicle>
    <vehicle id="254" depart="254.00">