<tazs>
    <taz id="00" shape="2354.85,2254.2 2354.85,2307.56 2391.97,2307.56 2391.97,2254.2 2354.85,2254.2">
	<tazSource id="7617" weight ="0.8"/>
	<tazSource id="7618" weight ="0.2"/>
	<tazSink id="7359" weight = "1"/>
    </taz>
    <taz id="01" shape="1886.94,2473.99 1886.94,2509.85 1942.84,2509.85 1942.84,2473.99 1886.94,2473.99"> 
    	<tazSource id="10342.0" weight ="0.5"/>
	<tazSource id="10423" weight ="0.5"/>
	<tazSink   id="10410" weight ="1"/>  
    </taz>
    <taz id="02" shape="1162.89,2725.65 1162.89,2787.33 1225.32,2787.33 1225.32,2725.65 1162.89,2725.65">
	<tazSource id="10471" weight ="1"/>
	<tazSink   id="10394" weight ="1"/>  
    </taz>
    <taz id="03" shape="458.82,3058.88 458.82,3113.79 540.06,3113.79 540.06,3058.88 458.82,3058.88">
	<tazSource id="6522" weight ="1"/>
	<tazSink   id="10389" weight ="1"/>  
    </taz>
    <taz id="04" shape="221.87,3339.46 221.87,3386.85 285.81,3386.85 285.81,3339.46 221.87,3339.46">
	<tazSource id="12405" weight ="1"/>
	<tazSink   id="12396" weight ="1"/>  
    </taz>
    <taz id="05" shape="480.12,2020.01 480.12,2054.49 525.33,2054.49 525.33,2020.01 480.12,2020.01">
	<tazSource id="12004" weight ="1"/>
	<tazSink   id="12093" weight ="1"/>  
    </taz>
    <taz id="06" shape="-21.17,1814.3 -21.17,1847.08 43.82,1847.08 43.82,1814.3 -21.17,1814.3">
	<tazSource id="11597" weight ="1"/>
	<tazSink   id="11548" weight ="1"/>  
    </taz>
    <taz id="07" shape="83.9,1010.56 83.9,1074.55 165.64,1074.55 165.64,1010.56 83.9,1010.56">
	<tazSource id="12527" weight ="1"/>
	<tazSink   id="7677" weight ="1"/>  
    </taz>
    <taz id="08" shape="793.56,575.29 793.56,608.8 855.1,608.8 855.1,575.29 793.56,575.29">
	<tazSource id="7760" weight ="1"/>
	<tazSink   id="7765" weight ="1"/>  
    </taz>
    <taz id="09" shape="1376.95,-21.86 1376.95,20.41 1438.49,20.41 1438.49,-21.86 1376.95,-21.86">
	<tazSource id="6483" weight ="1"/>
	<tazSink   id="7533" weight ="0.7"/>  
	<tazSink   id="7803" weight ="0.3"/>  
    </taz>
    <taz id="10" shape="1869.3,-14.4 1869.3,28.49 1951.36,28.49 1951.36,-14.4 1869.3,-14.4">
	<tazSource id="8111" weight ="0.95"/>
	<tazSource id="8112" weight ="0.05"/>
	<tazSink   id="6659" weight ="0.4"/> 
	<tazSink   id="8031" weight ="0.6"/>  
    </taz>
    <taz id="11" shape="2169.67,583.22 2169.67,690.53 2276.98,690.53 2276.98,583.22 2169.67,583.22">
	<tazSource id="5349" weight ="1"/>
	<tazSink   id="6515" weight ="1"/>  
    </taz>
    <taz id="12" shape="1572.19,1686.48 1572.19,1757.43 1668.94,1757.43 1668.94,1686.48 1572.19,1686.48">
	<tazSource id="1153" weight ="1"/>
	<tazSink   id="-7573" weight ="1"/>  
    </taz>
    <taz id="13" shape="2183.79,2083.74 2183.79,2114.1 2215.08,2114.1 2215.08,2083.74 2183.79,2083.74">
	<tazSource id="-1286" weight ="1"/>
	<tazSink   id="1286" weight ="1"/>  
    </taz>
</tazs>
