<routes>
    <vType id="veh_passenger" vClass="passenger"/>
    <trip depart="0" departLane="best" from="479751369#4" id="veh0_0" to="-159455892#6" type="veh_passenger"/>
    <trip depart="0.9" departLane="best" from="1036346145" id="veh1_0" to="100646295#1" type="veh_passenger"/>
    <trip depart="1.8" departLane="best" from="486825027#0" id="veh2_0" to="479797313#7" type="veh_passenger"/>
    <trip depart="2.69" departLane="best" from="665453544" id="veh3_0" to="-320755659#0" type="veh_passenger"/>
    <trip depart="4.49" departLane="best" from="100646220#1" id="veh5_0" to="235424958#4" type="veh_passenger"/>
    <trip depart="5.39" departLane="best" from="-155033028#1" id="veh6_0" to="-623891502#0" type="veh_passenger"/>
    <trip depart="6.28" departLane="best" from="479797258#4" id="veh7_0" to="25931028#0" type="veh_passenger"/>
    <trip depart="7.18" departLane="best" from="100646245#3" id="veh8_0" to="321071861#2" type="veh_passenger"/>
    <trip depart="8.98" departLane="best" from="1041521602" id="veh10_0" to="-480276564" type="veh_passenger"/>
    <trip depart="9.88" departLane="best" from="773876919#5" id="veh11_0" to="1041187875-AddedOnRampEdge" type="veh_passenger"/>
    <trip depart="11.67" departLane="best" from="623474397#3" id="veh13_0" to="321073948" type="veh_passenger"/>
    <trip depart="12.57" departLane="best" from="61163715#4" id="veh14_0" to="481854591#1" type="veh_passenger"/>
    <trip depart="13.47" departLane="best" from="25931033" id="veh15_0" to="854001005#0" type="veh_passenger"/>
    <trip depart="15.26" departLane="best" from="622809059#0" id="veh17_0" to="475316653#4" type="veh_passenger"/>
    <trip depart="16.16" departLane="best" from="625413783#2" id="veh18_0" to="320755665" type="veh_passenger"/>
    <trip depart="19.75" departLane="best" from="-379986746#0" id="veh22_0" to="1036341357#0" type="veh_passenger"/>
    <trip depart="21.55" departLane="best" from="1042693362#0" id="veh24_0" to="-775380332#0" type="veh_passenger"/>
    <trip depart="22.45" departLane="best" from="1036341360#1" id="veh25_0" to="743386900" type="veh_passenger"/>
    <trip depart="23.34" departLane="best" from="479797253#1" id="veh26_0" to="379986751" type="veh_passenger"/>
    <trip depart="25.14" departLane="best" from="-480252897#2" id="veh28_0" to="1042449170" type="veh_passenger"/>
    <trip depart="26.04" departLane="best" from="901285519#0" id="veh29_0" to="479621763#4" type="veh_passenger"/>
    <trip depart="27.83" departLane="best" from="623128861" id="veh31_0" to="491638585" type="veh_passenger"/>
    <trip depart="30.53" departLane="best" from="-775380332#5" id="veh34_0" to="765449928" type="veh_passenger"/>
    <trip depart="32.32" departLane="best" from="479797277#5" id="veh36_0" to="1042716326" type="veh_passenger"/>
    <trip depart="33.22" departLane="best" from="742718528#2" id="veh37_0" to="166563426#4" type="veh_passenger"/>
    <trip depart="34.12" departLane="best" from="1036341358#0" id="veh38_0" to="1036060565" type="veh_passenger"/>
    <trip depart="35.01" departLane="best" from="26234656#0" id="veh39_0" to="1036099955" type="veh_passenger"/>
    <trip depart="35.91" departLane="best" from="321073225#2" id="veh40_0" to="684128578#0" type="veh_passenger"/>
    <trip depart="36.81" departLane="best" from="156148402#2" id="veh41_0" to="100646256#0" type="veh_passenger"/>
    <trip depart="37.71" departLane="best" from="994962124#6" id="veh42_0" to="235424974#1" type="veh_passenger"/>
    <trip depart="39.5" departLane="best" from="-475316653#5" id="veh44_0" to="479613108#2" type="veh_passenger"/>
    <trip depart="40.4" departLane="best" from="583797089#1" id="veh45_0" to="156148413#0" type="veh_passenger"/>
    <trip depart="41.3" departLane="best" from="-248698662" id="veh46_0" to="1042676039" type="veh_passenger"/>
    <trip depart="42.2" departLane="best" from="994962124#3" id="veh47_0" to="248698674#2" type="veh_passenger"/>
    <trip depart="43.09" departLane="best" from="854001005#0" id="veh48_0" to="625413762#3" type="veh_passenger"/>
    <trip depart="43.99" departLane="best" from="-1036047409#0" id="veh49_0" to="480284576#2" type="veh_passenger"/>
    <trip depart="44.89" departLane="best" from="479797341#1-AddedOnRampEdge" id="veh50_0" to="255416224#2" type="veh_passenger"/>
    <trip depart="45.79" departLane="best" from="1036341360#0" id="veh51_0" to="479621763#7" type="veh_passenger"/>
    <trip depart="46.69" departLane="best" from="-475319370" id="veh52_0" to="159453447#8" type="veh_passenger"/>
    <trip depart="47.58" departLane="best" from="178774212#0" id="veh53_0" to="773159597#3" type="veh_passenger"/>
    <trip depart="49.38" departLane="best" from="248698668#12" id="veh55_0" to="-490165001#1" type="veh_passenger"/>
    <trip depart="51.17" departLane="best" from="1039159932#1" id="veh57_0" to="479621763#11" type="veh_passenger"/>
    <trip depart="52.97" departLane="best" from="491462355" id="veh59_0" to="255416245#1" type="veh_passenger"/>
    <trip depart="53.87" departLane="best" from="491638583#0" id="veh60_0" to="255416142#2" type="veh_passenger"/>
    <trip depart="54.77" departLane="best" from="-100646217#1" id="veh61_0" to="1040911960" type="veh_passenger"/>
    <trip depart="59.26" departLane="best" from="-256157283#0" id="veh66_0" to="216065938#0" type="veh_passenger"/>
    <trip depart="60.15" departLane="best" from="-248698668#10" id="veh67_0" to="491628725#1-AddedOffRampEdge" type="veh_passenger"/>
    <trip depart="61.05" departLane="best" from="491628725#1-AddedOffRampEdge" id="veh68_0" to="-479797283#1" type="veh_passenger"/>
    <trip depart="61.95" departLane="best" from="224737854#2" id="veh69_0" to="25931028#3" type="veh_passenger"/>
    <trip depart="64.64" departLane="best" from="25931909" id="veh72_0" to="481854591#1" type="veh_passenger"/>
    <trip depart="65.54" departLane="best" from="-625413768#3" id="veh73_0" to="1039159932#1" type="veh_passenger"/>
    <trip depart="66.44" departLane="best" from="994962124#2" id="veh74_0" to="479797239#0" type="veh_passenger"/>
    <trip depart="68.23" departLane="best" from="-479621745#7" id="veh76_0" to="1032262905#1" type="veh_passenger"/>
    <trip depart="69.13" departLane="best" from="1041504065" id="veh77_0" to="321071861#1" type="veh_passenger"/>
    <trip depart="70.03" departLane="best" from="1032665742" id="veh78_0" to="100646260#0" type="veh_passenger"/>
    <trip depart="70.93" departLane="best" from="-248698668#8" id="veh79_0" to="479621745#7" type="veh_passenger"/>
    <trip depart="72.72" departLane="best" from="625413768#2" id="veh81_0" to="-255416245#0" type="veh_passenger"/>
    <trip depart="74.52" departLane="best" from="-994875416" id="veh83_0" to="-479797308" type="veh_passenger"/>
    <trip depart="75.42" departLane="best" from="742727484#1" id="veh84_0" to="26234533#0" type="veh_passenger"/>
    <trip depart="76.31" departLane="best" from="224737852#6" id="veh85_0" to="538068606-AddedOffRampEdge" type="veh_passenger"/>
    <trip depart="77.21" departLane="best" from="-320758120" id="veh86_0" to="156148432#0" type="veh_passenger"/>
    <trip depart="79.01" departLane="best" from="481854588#3" id="veh88_0" to="479797313#0" type="veh_passenger"/>
    <trip depart="80.8" departLane="best" from="156148407#0" id="veh90_0" to="1041235840#1-AddedOffRampEdge" type="veh_passenger"/>
    <trip depart="81.7" departLane="best" from="625413783#2" id="veh91_0" to="1036062887" type="veh_passenger"/>
    <trip depart="82.6" departLane="best" from="-61163715#2" id="veh92_0" to="159455874#9" type="veh_passenger"/>
    <trip depart="83.5" departLane="best" from="159453472#0" id="veh93_0" to="1036341357#1" type="veh_passenger"/>
    <trip depart="85.29" departLane="best" from="166563429#6" id="veh95_0" to="625413766#0" type="veh_passenger"/>
    <trip depart="87.09" departLane="best" from="996026061#1" id="veh97_0" to="622873931#7" type="veh_passenger"/>
    <trip depart="87.99" departLane="best" from="854001000#1" id="veh98_0" to="742727471" type="veh_passenger"/>
    <trip depart="89.78" departLane="best" from="235427270" id="veh100_0" to="100646217#3" type="veh_passenger"/>
    <trip depart="92.47" departLane="best" from="1036341358#1" id="veh103_0" to="538068606-AddedOffRampEdge" type="veh_passenger"/>
    <trip depart="93.37" departLane="best" from="178774217#1" id="veh104_0" to="156148417" type="veh_passenger"/>
    <trip depart="95.17" departLane="best" from="25934395#5" id="veh106_0" to="480283416#1" type="veh_passenger"/>
    <trip depart="96.07" departLane="best" from="-480250296#0" id="veh107_0" to="1036360487#6" type="veh_passenger"/>
    <trip depart="96.96" departLane="best" from="854001000#0" id="veh108_0" to="320758120" type="veh_passenger"/>
    <trip depart="97.86" departLane="best" from="25931909" id="veh109_0" to="490192688#5" type="veh_passenger"/>
    <trip depart="98.76" departLane="best" from="-234517427#4" id="veh110_0" to="320758139" type="veh_passenger"/>
    <trip depart="99.66" departLane="best" from="248698670#0" id="veh111_0" to="623891500#1" type="veh_passenger"/>
    <trip depart="100.55" departLane="best" from="-480250299#0" id="veh112_0" to="774852739#1" type="veh_passenger"/>
    <trip depart="102.35" departLane="best" from="323563821#1" id="veh114_0" to="479797313#4" type="veh_passenger"/>
    <trip depart="105.04" departLane="best" from="323563821#0" id="veh117_0" to="475316658#1" type="veh_passenger"/>
    <trip depart="105.94" departLane="best" from="159453449#8" id="veh118_0" to="320758139" type="veh_passenger"/>
    <trip depart="106.84" departLane="best" from="256157278#1" id="veh119_0" to="742727484#3" type="veh_passenger"/>
    <trip depart="107.74" departLane="best" from="-658095569#2" id="veh120_0" to="480276562" type="veh_passenger"/>
    <trip depart="108.63" departLane="best" from="1036060565" id="veh121_0" to="1042716327" type="veh_passenger"/>
    <trip depart="109.53" departLane="best" from="479797313#7" id="veh122_0" to="1038266651" type="veh_passenger"/>
    <trip depart="110.43" departLane="best" from="1040925852" id="veh123_0" to="490213894-AddedOffRampEdge" type="veh_passenger"/>
    <trip depart="111.33" departLane="best" from="-248698670#2" id="veh124_0" to="166563426#3" type="veh_passenger"/>
    <trip depart="112.23" departLane="best" from="-255416142#1" id="veh125_0" to="100646208" type="veh_passenger"/>
    <trip depart="113.12" departLane="best" from="1036341358#1" id="veh126_0" to="742727484#0" type="veh_passenger"/>
    <trip depart="114.02" departLane="best" from="1042693361#1" id="veh127_0" to="-480282281#0" type="veh_passenger"/>
    <trip depart="114.92" departLane="best" from="622873931#7" id="veh128_0" to="480250293#0" type="veh_passenger"/>
    <trip depart="115.82" departLane="best" from="475316653#6" id="veh129_0" to="854052897#4" type="veh_passenger"/>
    <trip depart="116.71" departLane="best" from="479797277#2" id="veh130_0" to="-100646260#1" type="veh_passenger"/>
    <trip depart="117.61" departLane="best" from="618364867#1" id="veh131_0" to="1038110939" type="veh_passenger"/>
    <trip depart="118.51" departLane="best" from="479797310#0" id="veh132_0" to="765449926#0" type="veh_passenger"/>
    <trip depart="120.31" departLane="best" from="-475316645#2" id="veh134_0" to="25931028#5" type="veh_passenger"/>
    <trip depart="123" departLane="best" from="479621763#12" id="veh137_0" to="1036099956#3" type="veh_passenger"/>
    <trip depart="123.9" departLane="best" from="235427743#0" id="veh138_0" to="696730624" type="veh_passenger"/>
    <trip depart="124.8" departLane="best" from="623474397#0" id="veh139_0" to="-379986688#2" type="veh_passenger"/>
    <trip depart="125.69" departLane="best" from="159453472#4" id="veh140_0" to="1036341355" type="veh_passenger"/>
    <trip depart="126.59" departLane="best" from="-100646242#1" id="veh141_0" to="491632371#2" type="veh_passenger"/>
    <trip depart="127.49" departLane="best" from="479621774#2" id="veh142_0" to="1036099953" type="veh_passenger"/>
    <trip depart="128.39" departLane="best" from="489606090" id="veh143_0" to="25931028#4" type="veh_passenger"/>
    <trip depart="129.28" departLane="best" from="159455874#4" id="veh144_0" to="-100646264#0" type="veh_passenger"/>
    <trip depart="130.18" departLane="best" from="-255416153" id="veh145_0" to="665451330#1" type="veh_passenger"/>
    <trip depart="131.98" departLane="best" from="622873934#0" id="veh147_0" to="320758130#1" type="veh_passenger"/>
    <trip depart="132.88" departLane="best" from="-479816722#1" id="veh148_0" to="-479797258#5" type="veh_passenger"/>
    <trip depart="133.77" departLane="best" from="1040260533" id="veh149_0" to="684128578#2" type="veh_passenger"/>
    <trip depart="134.67" departLane="best" from="583797089#8" id="veh150_0" to="625413762#3" type="veh_passenger"/>
    <trip depart="135.57" departLane="best" from="684128578#0" id="veh151_0" to="-775380332#4" type="veh_passenger"/>
    <trip depart="137.36" departLane="best" from="491638583#6" id="veh153_0" to="665451330#2" type="veh_passenger"/>
    <trip depart="138.26" departLane="best" from="156148419#1" id="veh154_0" to="475319371#0" type="veh_passenger"/>
    <trip depart="140.06" departLane="best" from="625418511" id="veh156_0" to="854040750" type="veh_passenger"/>
    <trip depart="143.65" departLane="best" from="61163710#13" id="veh160_0" to="625413783#2" type="veh_passenger"/>
    <trip depart="145.44" departLane="best" from="538068340#1" id="veh162_0" to="-479613101#1" type="veh_passenger"/>
    <trip depart="147.24" departLane="best" from="100646256#1" id="veh164_0" to="618371794" type="veh_passenger"/>
    <trip depart="148.14" departLane="best" from="216060954#1" id="veh165_0" to="1039133060" type="veh_passenger"/>
    <trip depart="149.04" departLane="best" from="583797089#7" id="veh166_0" to="1032987570#1" type="veh_passenger"/>
    <trip depart="149.93" departLane="best" from="-1042698679" id="veh167_0" to="-622804129#0" type="veh_passenger"/>
    <trip depart="150.83" departLane="best" from="1041235840#0" id="veh168_0" to="625413783#3" type="veh_passenger"/>
    <trip depart="151.73" departLane="best" from="479751865#1" id="veh169_0" to="1042728028#1" type="veh_passenger"/>
    <trip depart="152.63" departLane="best" from="854052892-AddedOffRampEdge" id="veh170_0" to="255416223#1" type="veh_passenger"/>
    <trip depart="153.52" departLane="best" from="764267604" id="veh171_0" to="-479621752#0" type="veh_passenger"/>
    <trip depart="154.42" departLane="best" from="854001002#1" id="veh172_0" to="-490165001#1" type="veh_passenger"/>
    <trip depart="155.32" departLane="best" from="775122579#1" id="veh173_0" to="1036114082" type="veh_passenger"/>
    <trip depart="156.22" departLane="best" from="-475316653#0" id="veh174_0" to="159453447#8" type="veh_passenger"/>
    <trip depart="157.12" departLane="best" from="481854585" id="veh175_0" to="1039159937" type="veh_passenger"/>
    <trip depart="158.91" departLane="best" from="123423117#1" id="veh177_0" to="320755661#1" type="veh_passenger"/>
    <trip depart="159.81" departLane="best" from="1036338535" id="veh178_0" to="480250299#1" type="veh_passenger"/>
    <trip depart="160.71" departLane="best" from="-100646220#2" id="veh179_0" to="742727470" type="veh_passenger"/>
    <trip depart="162.5" departLane="best" from="489606090" id="veh181_0" to="479797310#7" type="veh_passenger"/>
    <trip depart="163.4" departLane="best" from="1042449169#1" id="veh182_0" to="-255416229#2" type="veh_passenger"/>
    <trip depart="165.2" departLane="best" from="1040882903" id="veh184_0" to="623138417" type="veh_passenger"/>
    <trip depart="166.09" departLane="best" from="480284576#1" id="veh185_0" to="1038324580" type="veh_passenger"/>
    <trip depart="166.99" departLane="best" from="1040591005" id="veh186_0" to="145126347" type="veh_passenger"/>
    <trip depart="167.89" departLane="best" from="156148404#3" id="veh187_0" to="1036360487#5" type="veh_passenger"/>
    <trip depart="168.79" departLane="best" from="-479621763#5" id="veh188_0" to="156148404#2" type="veh_passenger"/>
    <trip depart="169.69" departLane="best" from="764267605" id="veh189_0" to="479797318#0" type="veh_passenger"/>
    <trip depart="171.48" departLane="best" from="1039159935" id="veh191_0" to="25931028#2" type="veh_passenger"/>
    <trip depart="172.38" departLane="best" from="-100646217#0" id="veh192_0" to="1036342983" type="veh_passenger"/>
    <trip depart="173.28" departLane="best" from="159455874#8" id="veh193_0" to="320758122#1" type="veh_passenger"/>
    <trip depart="175.07" departLane="best" from="166563429#4" id="veh195_0" to="100646217#3" type="veh_passenger"/>
    <trip depart="175.97" departLane="best" from="224737854#0" id="veh196_0" to="684135634#2" type="veh_passenger"/>
    <trip depart="176.87" departLane="best" from="583797089#8" id="veh197_0" to="-483726628#0" type="veh_passenger"/>
    <trip depart="178.66" departLane="best" from="479621758#4" id="veh199_0" to="1041187875" type="veh_passenger"/>
    <trip depart="180.46" departLane="best" from="479797318#4" id="veh201_0" to="1032262905#1" type="veh_passenger"/>
    <trip depart="181.36" departLane="best" from="-623891515#1" id="veh202_0" to="-159455892#4" type="veh_passenger"/>
    <trip depart="183.15" departLane="best" from="623474399#3" id="veh204_0" to="-255416251#2" type="veh_passenger"/>
    <trip depart="184.05" departLane="best" from="159453447#12" id="veh205_0" to="479621745#2" type="veh_passenger"/>
    <trip depart="184.95" departLane="best" from="-622873929#0" id="veh206_0" to="479816723#0" type="veh_passenger"/>
    <trip depart="185.85" departLane="best" from="245763347#0" id="veh207_0" to="1036052086#2" type="veh_passenger"/>
    <trip depart="186.74" departLane="best" from="479797279" id="veh208_0" to="-100646248#2" type="veh_passenger"/>
    <trip depart="188.54" departLane="best" from="-475316645#2" id="veh210_0" to="156148419#2" type="veh_passenger"/>
    <trip depart="189.44" departLane="best" from="-483796488#0" id="veh211_0" to="773876919#3" type="veh_passenger"/>
    <trip depart="192.13" departLane="best" from="178774219#2" id="veh214_0" to="61163710#1" type="veh_passenger"/>
    <trip depart="193.93" departLane="best" from="323563821#2" id="veh216_0" to="773159596#1" type="veh_passenger"/>
    <trip depart="194.82" departLane="best" from="665453544" id="veh217_0" to="47070283#3" type="veh_passenger"/>
    <trip depart="195.72" departLane="best" from="480284575" id="veh218_0" to="235424958#4" type="veh_passenger"/>
    <trip depart="196.62" departLane="best" from="622873931#0" id="veh219_0" to="25931028#2" type="veh_passenger"/>
    <trip depart="197.52" departLane="best" from="665453553" id="veh220_0" to="489629072#3" type="veh_passenger"/>
    <trip depart="199.31" departLane="best" from="1036079534" id="veh222_0" to="479621758#3" type="veh_passenger"/>
    <trip depart="202.01" departLane="best" from="-255416209#0" id="veh225_0" to="1036342983" type="veh_passenger"/>
    <trip depart="203.8" departLane="best" from="25931909" id="veh227_0" to="-479797345#1" type="veh_passenger"/>
    <trip depart="206.5" departLane="best" from="156148419#4" id="veh230_0" to="256157279" type="veh_passenger"/>
    <trip depart="209.19" departLane="best" from="321073225#1" id="veh233_0" to="479816717#0" type="veh_passenger"/>
    <trip depart="210.09" departLane="best" from="625397297" id="veh234_0" to="491628727#0" type="veh_passenger"/>
    <trip depart="210.98" departLane="best" from="1042716324" id="veh235_0" to="-100646252#0" type="veh_passenger"/>
    <trip depart="211.88" departLane="best" from="1041544550#0" id="veh236_0" to="490216931#1" type="veh_passenger"/>
    <trip depart="212.78" departLane="best" from="623891513" id="veh237_0" to="773159597#3" type="veh_passenger"/>
    <trip depart="213.68" departLane="best" from="159453449#7" id="veh238_0" to="490192688#3-AddedOnRampEdge" type="veh_passenger"/>
    <trip depart="214.58" departLane="best" from="25931950-AddedOffRampEdge" id="veh239_0" to="321073948" type="veh_passenger"/>
    <trip depart="216.37" departLane="best" from="1041504064" id="veh241_0" to="479797321" type="veh_passenger"/>
    <trip depart="218.17" departLane="best" from="224737849#3" id="veh243_0" to="-479797258#6" type="veh_passenger"/>
    <trip depart="219.96" departLane="best" from="156148397#3" id="veh245_0" to="25934381#0" type="veh_passenger"/>
    <trip depart="220.86" departLane="best" from="-156148407#1" id="veh246_0" to="479751358#0" type="veh_passenger"/>
    <trip depart="221.76" departLane="best" from="-479797279" id="veh247_0" to="166563429#5" type="veh_passenger"/>
    <trip depart="222.66" departLane="best" from="-216060954#0" id="veh248_0" to="1042449170" type="veh_passenger"/>
    <trip depart="223.55" departLane="best" from="490718877#0" id="veh249_0" to="1042449170" type="veh_passenger"/>
    <trip depart="225.35" departLane="best" from="1036313338" id="veh251_0" to="-25934385#0" type="veh_passenger"/>
    <trip depart="226.25" departLane="best" from="-1039220886" id="veh252_0" to="255416245#1" type="veh_passenger"/>
    <trip depart="227.15" departLane="best" from="479797258#5" id="veh253_0" to="538068339#5" type="veh_passenger"/>
    <trip depart="228.04" departLane="best" from="479797271" id="veh254_0" to="490216934#0" type="veh_passenger"/>
    <trip depart="228.94" departLane="best" from="773159597#1" id="veh255_0" to="-623891512" type="veh_passenger"/>
    <trip depart="230.74" departLane="best" from="-479621763#11" id="veh257_0" to="479797310#2" type="veh_passenger"/>
    <trip depart="231.63" departLane="best" from="267535712" id="veh258_0" to="100646248#1" type="veh_passenger"/>
    <trip depart="232.53" departLane="best" from="480250287#2" id="veh259_0" to="491628727#1" type="veh_passenger"/>
    <trip depart="233.43" departLane="best" from="-480284570" id="veh260_0" to="379986688#5" type="veh_passenger"/>
    <trip depart="234.33" departLane="best" from="490165001#0" id="veh261_0" to="-479621751#0" type="veh_passenger"/>
    <trip depart="236.12" departLane="best" from="-475316652#3" id="veh263_0" to="-159457890#2" type="veh_passenger"/>
    <trip depart="237.02" departLane="best" from="1040882902#0" id="veh264_0" to="479797318#0" type="veh_passenger"/>
    <trip depart="237.92" departLane="best" from="774852739#0" id="veh265_0" to="1042716327" type="veh_passenger"/>
    <trip depart="239.71" departLane="best" from="479812143#3" id="veh267_0" to="479613108#1" type="veh_passenger"/>
    <trip depart="241.51" departLane="best" from="623891500#1" id="veh269_0" to="321073251" type="veh_passenger"/>
    <trip depart="242.41" departLane="best" from="491638590#0" id="veh270_0" to="1041521601" type="veh_passenger"/>
    <trip depart="243.31" departLane="best" from="159455874#5" id="veh271_0" to="1042334799" type="veh_passenger"/>
    <trip depart="244.2" departLane="best" from="248698674#2" id="veh272_0" to="1041286369" type="veh_passenger"/>
    <trip depart="246" departLane="best" from="-475316645#0" id="veh274_0" to="774852739#1" type="veh_passenger"/>
    <trip depart="246.9" departLane="best" from="479621763#6" id="veh275_0" to="622804124#1" type="veh_passenger"/>
    <trip depart="248.69" departLane="best" from="483726628#1" id="veh277_0" to="775380332#4" type="veh_passenger"/>
    <trip depart="249.59" departLane="best" from="1036341364#0" id="veh278_0" to="61163785#3" type="veh_passenger"/>
    <trip depart="250.49" departLane="best" from="25931907" id="veh279_0" to="216060954#3" type="veh_passenger"/>
    <trip depart="251.39" departLane="best" from="159455892#3" id="veh280_0" to="481854596#2" type="veh_passenger"/>
    <trip depart="252.28" departLane="best" from="1036341362#1" id="veh281_0" to="623474399#2" type="veh_passenger"/>
    <trip depart="253.18" departLane="best" from="622873931#0" id="veh282_0" to="-320755658#2" type="veh_passenger"/>
    <trip depart="254.08" departLane="best" from="665451328#4" id="veh283_0" to="1036052086#2" type="veh_passenger"/>
    <trip depart="254.98" departLane="best" from="216065940#2" id="veh284_0" to="390383583#0" type="veh_passenger"/>
    <trip depart="257.67" departLane="best" from="-856908280" id="veh287_0" to="584750383#1" type="veh_passenger"/>
    <trip depart="259.47" departLane="best" from="480250295#0" id="veh289_0" to="1036341355" type="veh_passenger"/>
    <trip depart="261.26" departLane="best" from="-256157283#0" id="veh291_0" to="480284575" type="veh_passenger"/>
    <trip depart="262.16" departLane="best" from="235427743#0" id="veh292_0" to="491628725#0" type="veh_passenger"/>
    <trip depart="263.06" departLane="best" from="479812143#3" id="veh293_0" to="479751374#1" type="veh_passenger"/>
    <trip depart="263.96" departLane="best" from="235436489#0" id="veh294_0" to="583797089#2" type="veh_passenger"/>
    <trip depart="264.85" departLane="best" from="-25934395#4" id="veh295_0" to="100646269#0" type="veh_passenger"/>
    <trip depart="265.75" departLane="best" from="479812147#0" id="veh296_0" to="1039133060" type="veh_passenger"/>
    <trip depart="267.55" departLane="best" from="25931028#4" id="veh298_0" to="156148419#3" type="veh_passenger"/>
    <trip depart="268.44" departLane="best" from="489924065" id="veh299_0" to="1040929341" type="veh_passenger"/>
    <trip depart="269.34" departLane="best" from="480250296#2" id="veh300_0" to="1036341350#3" type="veh_passenger"/>
    <trip depart="270.24" departLane="best" from="1036114082" id="veh301_0" to="-479621763#9" type="veh_passenger"/>
    <trip depart="271.14" departLane="best" from="-61163785#3" id="veh302_0" to="-479621763#5" type="veh_passenger"/>
    <trip depart="272.04" departLane="best" from="25931033" id="veh303_0" to="491628725#3" type="veh_passenger"/>
    <trip depart="272.93" departLane="best" from="-491638583#3" id="veh304_0" to="100646242#1" type="veh_passenger"/>
    <trip depart="275.63" departLane="best" from="1036360487#6" id="veh307_0" to="-475316653#0" type="veh_passenger"/>
    <trip depart="276.52" departLane="best" from="-622805764#1" id="veh308_0" to="1032987570#1" type="veh_passenger"/>
    <trip depart="279.22" departLane="best" from="854040751" id="veh311_0" to="25931028#5" type="veh_passenger"/>
    <trip depart="280.12" departLane="best" from="479816723#2" id="veh312_0" to="-479797258#1" type="veh_passenger"/>
    <trip depart="281.91" departLane="best" from="658130902" id="veh314_0" to="26234533#2" type="veh_passenger"/>
    <trip depart="282.81" departLane="best" from="224737850#2" id="veh315_0" to="159453472#0" type="veh_passenger"/>
    <trip depart="283.71" departLane="best" from="-490718877#2" id="veh316_0" to="-248698662" type="veh_passenger"/>
    <trip depart="285.5" departLane="best" from="618371797" id="veh318_0" to="1046628053" type="veh_passenger"/>
    <trip depart="286.4" departLane="best" from="-255416142#4" id="veh319_0" to="479621745#1" type="veh_passenger"/>
    <trip depart="288.2" departLane="best" from="267535712" id="veh321_0" to="1039133060" type="veh_passenger"/>
    <trip depart="289.09" departLane="best" from="994962121#3" id="veh322_0" to="-479621763#11" type="veh_passenger"/>
    <trip depart="289.99" departLane="best" from="491628725#1" id="veh323_0" to="379986688#1" type="veh_passenger"/>
    <trip depart="291.79" departLane="best" from="256157278#0" id="veh325_0" to="159455875#2" type="veh_passenger"/>
    <trip depart="292.69" departLane="best" from="166563429#5" id="veh326_0" to="625413762#1" type="veh_passenger"/>
    <trip depart="293.58" departLane="best" from="901285521" id="veh327_0" to="1039133060" type="veh_passenger"/>
    <trip depart="294.48" departLane="best" from="479621743#1" id="veh328_0" to="379986768" type="veh_passenger"/>
    <trip depart="295.38" departLane="best" from="489606084-AddedOnRampEdge" id="veh329_0" to="765467137" type="veh_passenger"/>
    <trip depart="296.28" departLane="best" from="-665451328#7" id="veh330_0" to="-775599627#0" type="veh_passenger"/>
    <trip depart="297.17" departLane="best" from="479797300#0" id="veh331_0" to="-480282280" type="veh_passenger"/>
    <trip depart="298.07" departLane="best" from="-480475790#0" id="veh332_0" to="-256157278#0" type="veh_passenger"/>
    <trip depart="298.97" departLane="best" from="-100646234" id="veh333_0" to="159455875#2" type="veh_passenger"/>
    <trip depart="299.87" departLane="best" from="323563821#0" id="veh334_0" to="1036360484" type="veh_passenger"/>
    <trip depart="300.77" departLane="best" from="1032987570#0" id="veh335_0" to="480250296#3" type="veh_passenger"/>
    <trip depart="301.66" departLane="best" from="480250298#0" id="veh336_0" to="159455892#3" type="veh_passenger"/>
    <trip depart="304.36" departLane="best" from="479797300#3" id="veh339_0" to="742727484#1" type="veh_passenger"/>
    <trip depart="305.25" departLane="best" from="479797253#0" id="veh340_0" to="697159285" type="veh_passenger"/>
    <trip depart="306.15" departLane="best" from="622804129#0" id="veh341_0" to="-255416245#1" type="veh_passenger"/>
    <trip depart="308.85" departLane="best" from="1038108482" id="veh344_0" to="-479797239#0" type="veh_passenger"/>
    <trip depart="311.54" departLane="best" from="245763347#0" id="veh347_0" to="-25934381#5" type="veh_passenger"/>
    <trip depart="312.44" departLane="best" from="-178774196#1" id="veh348_0" to="159453447#1" type="veh_passenger"/>
    <trip depart="313.33" departLane="best" from="1040929343" id="veh349_0" to="1036065183" type="veh_passenger"/>
    <trip depart="314.23" departLane="best" from="-25934381#7" id="veh350_0" to="774852739#3" type="veh_passenger"/>
    <trip depart="315.13" departLane="best" from="622873934#2" id="veh351_0" to="320755659#1" type="veh_passenger"/>
    <trip depart="316.03" departLane="best" from="773159597#2" id="veh352_0" to="996026062#0" type="veh_passenger"/>