<routes>
    <vType id="veh_passenger" vClass="passenger"/>
    <trip depart="43200" departLane="best" from="479751369#4" id="veh0_43200" to="-159455892#6" type="veh_passenger"/>
    <trip depart="43200.9" departLane="best" from="1036346145" id="veh1_43200" to="100646295#1" type="veh_passenger"/>
    <trip depart="43201.8" departLane="best" from="486825027#0" id="veh2_43200" to="479797313#7" type="veh_passenger"/>
    <trip depart="43202.69" departLane="best" from="665453544" id="veh3_43200" to="-320755659#0" type="veh_passenger"/>
    <trip depart="43204.49" departLane="best" from="100646220#1" id="veh5_43200" to="235424958#4" type="veh_passenger"/>
    <trip depart="43205.39" departLane="best" from="-155033028#1" id="veh6_43200" to="-623891502#0" type="veh_passenger"/>
    <trip depart="43206.28" departLane="best" from="479797258#4" id="veh7_43200" to="25931028#0" type="veh_passenger"/>
    <trip depart="43207.18" departLane="best" from="100646245#3" id="veh8_43200" to="321071861#2" type="veh_passenger"/>
    <trip depart="43208.98" departLane="best" from="1041521602" id="veh10_43200" to="-480276564" type="veh_passenger"/>
    <trip depart="43209.88" departLane="best" from="773876919#5" id="veh11_43200" to="1041187875-AddedOnRampEdge" type="veh_passenger"/>
    <trip depart="43211.67" departLane="best" from="623474397#3" id="veh13_43200" to="321073948" type="veh_passenger"/>
    <trip depart="43212.57" departLane="best" from="61163715#4" id="veh14_43200" to="481854591#1" type="veh_passenger"/>
    <trip depart="43213.47" departLane="best" from="25931033" id="veh15_43200" to="854001005#0" type="veh_passenger"/>
    <trip depart="43215.26" departLane="best" from="622809059#0" id="veh17_43200" to="475316653#4" type="veh_passenger"/>
    <trip depart="43216.16" departLane="best" from="625413783#2" id="veh18_43200" to="320755665" type="veh_passenger"/>
    <trip depart="43219.75" departLane="best" from="-379986746#0" id="veh22_43200" to="1036341357#0" type="veh_passenger"/>
    <trip depart="43221.55" departLane="best" from="1042693362#0" id="veh24_43200" to="-775380332#0" type="veh_passenger"/>
    <trip depart="43222.45" departLane="best" from="1036341360#1" id="veh25_43200" to="743386900" type="veh_passenger"/>
    <trip depart="43223.34" departLane="best" from="479797253#1" id="veh26_43200" to="379986751" type="veh_passenger"/>
    <trip depart="43225.14" departLane="best" from="-480252897#2" id="veh28_43200" to="1042449170" type="veh_passenger"/>
    <trip depart="43226.04" departLane="best" from="901285519#0" id="veh29_43200" to="479621763#4" type="veh_passenger"/>
    <trip depart="43227.83" departLane="best" from="623128861" id="veh31_43200" to="491638585" type="veh_passenger"/>
    <trip depart="43230.53" departLane="best" from="-775380332#5" id="veh34_43200" to="765449928" type="veh_passenger"/>
    <trip depart="43232.32" departLane="best" from="479797277#5" id="veh36_43200" to="1042716326" type="veh_passenger"/>
    <trip depart="43233.22" departLane="best" from="742718528#2" id="veh37_43200" to="166563426#4" type="veh_passenger"/>
    <trip depart="43234.12" departLane="best" from="1036341358#0" id="veh38_43200" to="1036060565" type="veh_passenger"/>
    <trip depart="43235.01" departLane="best" from="26234656#0" id="veh39_43200" to="1036099955" type="veh_passenger"/>
    <trip depart="43235.91" departLane="best" from="321073225#2" id="veh40_43200" to="684128578#0" type="veh_passenger"/>
    <trip depart="43236.81" departLane="best" from="156148402#2" id="veh41_43200" to="100646256#0" type="veh_passenger"/>
    <trip depart="43237.71" departLane="best" from="994962124#6" id="veh42_43200" to="235424974#1" type="veh_passenger"/>
    <trip depart="43239.5" departLane="best" from="-475316653#5" id="veh44_43200" to="479613108#2" type="veh_passenger"/>
    <trip depart="43240.4" departLane="best" from="583797089#1" id="veh45_43200" to="156148413#0" type="veh_passenger"/>
    <trip depart="43241.3" departLane="best" from="-248698662" id="veh46_43200" to="1042676039" type="veh_passenger"/>
    <trip depart="43242.2" departLane="best" from="994962124#3" id="veh47_43200" to="248698674#2" type="veh_passenger"/>
    <trip depart="43243.09" departLane="best" from="854001005#0" id="veh48_43200" to="625413762#3" type="veh_passenger"/>
    <trip depart="43243.99" departLane="best" from="-1036047409#0" id="veh49_43200" to="480284576#2" type="veh_passenger"/>
    <trip depart="43244.89" departLane="best" from="479797341#1-AddedOnRampEdge" id="veh50_43200" to="255416224#2" type="veh_passenger"/>
    <trip depart="43245.79" departLane="best" from="1036341360#0" id="veh51_43200" to="479621763#7" type="veh_passenger"/>
    <trip depart="43246.69" departLane="best" from="-475319370" id="veh52_43200" to="159453447#8" type="veh_passenger"/>
    <trip depart="43247.58" departLane="best" from="178774212#0" id="veh53_43200" to="773159597#3" type="veh_passenger"/>
    <trip depart="43249.38" departLane="best" from="248698668#12" id="veh55_43200" to="-490165001#1" type="veh_passenger"/>
    <trip depart="43251.17" departLane="best" from="1039159932#1" id="veh57_43200" to="479621763#11" type="veh_passenger"/>
    <trip depart="43252.97" departLane="best" from="491462355" id="veh59_43200" to="255416245#1" type="veh_passenger"/>
    <trip depart="43253.87" departLane="best" from="491638583#0" id="veh60_43200" to="255416142#2" type="veh_passenger"/>
    <trip depart="43254.77" departLane="best" from="-100646217#1" id="veh61_43200" to="1040911960" type="veh_passenger"/>
    <trip depart="43259.26" departLane="best" from="-256157283#0" id="veh66_43200" to="216065938#0" type="veh_passenger"/>
    <trip depart="43260.15" departLane="best" from="-248698668#10" id="veh67_43200" to="491628725#1-AddedOffRampEdge" type="veh_passenger"/>
    <trip depart="43261.05" departLane="best" from="491628725#1-AddedOffRampEdge" id="veh68_43200" to="-479797283#1" type="veh_passenger"/>
    <trip depart="43261.95" departLane="best" from="224737854#2" id="veh69_43200" to="25931028#3" type="veh_passenger"/>
    <trip depart="43264.64" departLane="best" from="25931909" id="veh72_43200" to="481854591#1" type="veh_passenger"/>
    <trip depart="43265.54" departLane="best" from="-625413768#3" id="veh73_43200" to="1039159932#1" type="veh_passenger"/>
    <trip depart="43266.44" departLane="best" from="994962124#2" id="veh74_43200" to="479797239#0" type="veh_passenger"/>
    <trip depart="43268.23" departLane="best" from="-479621745#7" id="veh76_43200" to="1032262905#1" type="veh_passenger"/>
    <trip depart="43269.13" departLane="best" from="1041504065" id="veh77_43200" to="321071861#1" type="veh_passenger"/>
    <trip depart="43270.03" departLane="best" from="1032665742" id="veh78_43200" to="100646260#0" type="veh_passenger"/>
    <trip depart="43270.93" departLane="best" from="-248698668#8" id="veh79_43200" to="479621745#7" type="veh_passenger"/>
    <trip depart="43272.72" departLane="best" from="625413768#2" id="veh81_43200" to="-255416245#0" type="veh_passenger"/>
    <trip depart="43274.52" departLane="best" from="-994875416" id="veh83_43200" to="-479797308" type="veh_passenger"/>
    <trip depart="43275.42" departLane="best" from="742727484#1" id="veh84_43200" to="26234533#0" type="veh_passenger"/>
    <trip depart="43276.31" departLane="best" from="224737852#6" id="veh85_43200" to="538068606-AddedOffRampEdge" type="veh_passenger"/>
    <trip depart="43277.21" departLane="best" from="-320758120" id="veh86_43200" to="156148432#0" type="veh_passenger"/>
    <trip depart="43279.01" departLane="best" from="481854588#3" id="veh88_43200" to="479797313#0" type="veh_passenger"/>
    <trip depart="43280.8" departLane="best" from="156148407#0" id="veh90_43200" to="1041235840#1-AddedOffRampEdge" type="veh_passenger"/>
    <trip depart="43281.7" departLane="best" from="625413783#2" id="veh91_43200" to="1036062887" type="veh_passenger"/>
    <trip depart="43282.6" departLane="best" from="-61163715#2" id="veh92_43200" to="159455874#9" type="veh_passenger"/>
    <trip depart="43283.5" departLane="best" from="159453472#0" id="veh93_43200" to="1036341357#1" type="veh_passenger"/>
    <trip depart="43285.29" departLane="best" from="166563429#6" id="veh95_43200" to="625413766#0" type="veh_passenger"/>
    <trip depart="43287.09" departLane="best" from="996026061#1" id="veh97_43200" to="622873931#7" type="veh_passenger"/>
    <trip depart="43287.99" departLane="best" from="854001000#1" id="veh98_43200" to="742727471" type="veh_passenger"/>
    <trip depart="43289.78" departLane="best" from="235427270" id="veh100_43200" to="100646217#3" type="veh_passenger"/>
    <trip depart="43292.47" departLane="best" from="1036341358#1" id="veh103_43200" to="538068606-AddedOffRampEdge" type="veh_passenger"/>
    <trip depart="43293.37" departLane="best" from="178774217#1" id="veh104_43200" to="156148417" type="veh_passenger"/>
    <trip depart="43295.17" departLane="best" from="25934395#5" id="veh106_43200" to="480283416#1" type="veh_passenger"/>
    <trip depart="43296.07" departLane="best" from="-480250296#0" id="veh107_43200" to="1036360487#6" type="veh_passenger"/>
    <trip depart="43296.96" departLane="best" from="854001000#0" id="veh108_43200" to="320758120" type="veh_passenger"/>
    <trip depart="43297.86" departLane="best" from="25931909" id="veh109_43200" to="490192688#5" type="veh_passenger"/>
    <trip depart="43298.76" departLane="best" from="-234517427#4" id="veh110_43200" to="320758139" type="veh_passenger"/>
    <trip depart="43299.66" departLane="best" from="248698670#0" id="veh111_43200" to="623891500#1" type="veh_passenger"/>
    <trip depart="43300.55" departLane="best" from="-480250299#0" id="veh112_43200" to="774852739#1" type="veh_passenger"/>
    <trip depart="43302.35" departLane="best" from="323563821#1" id="veh114_43200" to="479797313#4" type="veh_passenger"/>
    <trip depart="43305.04" departLane="best" from="323563821#0" id="veh117_43200" to="475316658#1" type="veh_passenger"/>
    <trip depart="43305.94" departLane="best" from="159453449#8" id="veh118_43200" to="320758139" type="veh_passenger"/>
    <trip depart="43306.84" departLane="best" from="256157278#1" id="veh119_43200" to="742727484#3" type="veh_passenger"/>
    <trip depart="43307.74" departLane="best" from="-658095569#2" id="veh120_43200" to="480276562" type="veh_passenger"/>
    <trip depart="43308.63" departLane="best" from="1036060565" id="veh121_43200" to="1042716327" type="veh_passenger"/>
    <trip depart="43309.53" departLane="best" from="479797313#7" id="veh122_43200" to="1038266651" type="veh_passenger"/>
    <trip depart="43310.43" departLane="best" from="1040925852" id="veh123_43200" to="490213894-AddedOffRampEdge" type="veh_passenger"/>
    <trip depart="43311.33" departLane="best" from="-248698670#2" id="veh124_43200" to="166563426#3" type="veh_passenger"/>
    <trip depart="43312.23" departLane="best" from="-255416142#1" id="veh125_43200" to="100646208" type="veh_passenger"/>
    <trip depart="43313.12" departLane="best" from="1036341358#1" id="veh126_43200" to="742727484#0" type="veh_passenger"/>
    <trip depart="43314.02" departLane="best" from="1042693361#1" id="veh127_43200" to="-480282281#0" type="veh_passenger"/>
    <trip depart="43314.92" departLane="best" from="622873931#7" id="veh128_43200" to="480250293#0" type="veh_passenger"/>
    <trip depart="43315.82" departLane="best" from="475316653#6" id="veh129_43200" to="854052897#4" type="veh_passenger"/>
    <trip depart="43316.71" departLane="best" from="479797277#2" id="veh130_43200" to="-100646260#1" type="veh_passenger"/>
    <trip depart="43317.61" departLane="best" from="618364867#1" id="veh131_43200" to="1038110939" type="veh_passenger"/>
    <trip depart="43318.51" departLane="best" from="479797310#0" id="veh132_43200" to="765449926#0" type="veh_passenger"/>
    <trip depart="43320.31" departLane="best" from="-475316645#2" id="veh134_43200" to="25931028#5" type="veh_passenger"/>
    <trip depart="43323" departLane="best" from="479621763#12" id="veh137_43200" to="1036099956#3" type="veh_passenger"/>
    <trip depart="43323.9" departLane="best" from="235427743#0" id="veh138_43200" to="696730624" type="veh_passenger"/>
    <trip depart="43324.8" departLane="best" from="623474397#0" id="veh139_43200" to="-379986688#2" type="veh_passenger"/>
    <trip depart="43325.69" departLane="best" from="159453472#4" id="veh140_43200" to="1036341355" type="veh_passenger"/>
    <trip depart="43326.59" departLane="best" from="-100646242#1" id="veh141_43200" to="491632371#2" type="veh_passenger"/>
    <trip depart="43327.49" departLane="best" from="479621774#2" id="veh142_43200" to="1036099953" type="veh_passenger"/>
    <trip depart="43328.39" departLane="best" from="489606090" id="veh143_43200" to="25931028#4" type="veh_passenger"/>
    <trip depart="43329.28" departLane="best" from="159455874#4" id="veh144_43200" to="-100646264#0" type="veh_passenger"/>
    <trip depart="43330.18" departLane="best" from="-255416153" id="veh145_43200" to="665451330#1" type="veh_passenger"/>
    <trip depart="43331.98" departLane="best" from="622873934#0" id="veh147_43200" to="320758130#1" type="veh_passenger"/>
    <trip depart="43332.88" departLane="best" from="-479816722#1" id="veh148_43200" to="-479797258#5" type="veh_passenger"/>
    <trip depart="43333.77" departLane="best" from="1040260533" id="veh149_43200" to="684128578#2" type="veh_passenger"/>
    <trip depart="43334.67" departLane="best" from="583797089#8" id="veh150_43200" to="625413762#3" type="veh_passenger"/>
    <trip depart="43335.57" departLane="best" from="684128578#0" id="veh151_43200" to="-775380332#4" type="veh_passenger"/>
    <trip depart="43337.36" departLane="best" from="491638583#6" id="veh153_43200" to="665451330#2" type="veh_passenger"/>
    <trip depart="43338.26" departLane="best" from="156148419#1" id="veh154_43200" to="475319371#0" type="veh_passenger"/>
    <trip depart="43340.06" departLane="best" from="625418511" id="veh156_43200" to="854040750" type="veh_passenger"/>
    <trip depart="43343.65" departLane="best" from="61163710#13" id="veh160_43200" to="625413783#2" type="veh_passenger"/>
    <trip depart="43345.44" departLane="best" from="538068340#1" id="veh162_43200" to="-479613101#1" type="veh_passenger"/>
    <trip depart="43347.24" departLane="best" from="100646256#1" id="veh164_43200" to="618371794" type="veh_passenger"/>
    <trip depart="43348.14" departLane="best" from="216060954#1" id="veh165_43200" to="1039133060" type="veh_passenger"/>
    <trip depart="43349.04" departLane="best" from="583797089#7" id="veh166_43200" to="1032987570#1" type="veh_passenger"/>
    <trip depart="43349.93" departLane="best" from="-1042698679" id="veh167_43200" to="-622804129#0" type="veh_passenger"/>
    <trip depart="43350.83" departLane="best" from="1041235840#0" id="veh168_43200" to="625413783#3" type="veh_passenger"/>
    <trip depart="43351.73" departLane="best" from="479751865#1" id="veh169_43200" to="1042728028#1" type="veh_passenger"/>
    <trip depart="43352.63" departLane="best" from="854052892-AddedOffRampEdge" id="veh170_43200" to="255416223#1" type="veh_passenger"/>
    <trip depart="43353.52" departLane="best" from="764267604" id="veh171_43200" to="-479621752#0" type="veh_passenger"/>
    <trip depart="43354.42" departLane="best" from="854001002#1" id="veh172_43200" to="-490165001#1" type="veh_passenger"/>
    <trip depart="43355.32" departLane="best" from="775122579#1" id="veh173_43200" to="1036114082" type="veh_passenger"/>
    <trip depart="43356.22" departLane="best" from="-475316653#0" id="veh174_43200" to="159453447#8" type="veh_passenger"/>
    <trip depart="43357.12" departLane="best" from="481854585" id="veh175_43200" to="1039159937" type="veh_passenger"/>
    <trip depart="43358.91" departLane="best" from="123423117#1" id="veh177_43200" to="320755661#1" type="veh_passenger"/>
    <trip depart="43359.81" departLane="best" from="1036338535" id="veh178_43200" to="480250299#1" type="veh_passenger"/>
    <trip depart="43360.71" departLane="best" from="-100646220#2" id="veh179_43200" to="742727470" type="veh_passenger"/>
    <trip depart="43362.5" departLane="best" from="489606090" id="veh181_43200" to="479797310#7" type="veh_passenger"/>
    <trip depart="43363.4" departLane="best" from="1042449169#1" id="veh182_43200" to="-255416229#2" type="veh_passenger"/>
    <trip depart="43365.2" departLane="best" from="1040882903" id="veh184_43200" to="623138417" type="veh_passenger"/>
    <trip depart="43366.09" departLane="best" from="480284576#1" id="veh185_43200" to="1038324580" type="veh_passenger"/>
    <trip depart="43366.99" departLane="best" from="1040591005" id="veh186_43200" to="145126347" type="veh_passenger"/>
    <trip depart="43367.89" departLane="best" from="156148404#3" id="veh187_43200" to="1036360487#5" type="veh_passenger"/>
    <trip depart="43368.79" departLane="best" from="-479621763#5" id="veh188_43200" to="156148404#2" type="veh_passenger"/>
    <trip depart="43369.69" departLane="best" from="764267605" id="veh189_43200" to="479797318#0" type="veh_passenger"/>
    <trip depart="43371.48" departLane="best" from="1039159935" id="veh191_43200" to="25931028#2" type="veh_passenger"/>
    <trip depart="43372.38" departLane="best" from="-100646217#0" id="veh192_43200" to="1036342983" type="veh_passenger"/>
    <trip depart="43373.28" departLane="best" from="159455874#8" id="veh193_43200" to="320758122#1" type="veh_passenger"/>
    <trip depart="43375.07" departLane="best" from="166563429#4" id="veh195_43200" to="100646217#3" type="veh_passenger"/>
    <trip depart="43375.97" departLane="best" from="224737854#0" id="veh196_43200" to="684135634#2" type="veh_passenger"/>
    <trip depart="43376.87" departLane="best" from="583797089#8" id="veh197_43200" to="-483726628#0" type="veh_passenger"/>
    <trip depart="43378.66" departLane="best" from="479621758#4" id="veh199_43200" to="1041187875" type="veh_passenger"/>
    <trip depart="43380.46" departLane="best" from="479797318#4" id="veh201_43200" to="1032262905#1" type="veh_passenger"/>
    <trip depart="43381.36" departLane="best" from="-623891515#1" id="veh202_43200" to="-159455892#4" type="veh_passenger"/>
    <trip depart="43383.15" departLane="best" from="623474399#3" id="veh204_43200" to="-255416251#2" type="veh_passenger"/>
    <trip depart="43384.05" departLane="best" from="159453447#12" id="veh205_43200" to="479621745#2" type="veh_passenger"/>
    <trip depart="43384.95" departLane="best" from="-622873929#0" id="veh206_43200" to="479816723#0" type="veh_passenger"/>
    <trip depart="43385.85" departLane="best" from="245763347#0" id="veh207_43200" to="1036052086#2" type="veh_passenger"/>
    <trip depart="43386.74" departLane="best" from="479797279" id="veh208_43200" to="-100646248#2" type="veh_passenger"/>
    <trip depart="43388.54" departLane="best" from="-475316645#2" id="veh210_43200" to="156148419#2" type="veh_passenger"/>
    <trip depart="43389.44" departLane="best" from="-483796488#0" id="veh211_43200" to="773876919#3" type="veh_passenger"/>
    <trip depart="43392.13" departLane="best" from="178774219#2" id="veh214_43200" to="61163710#1" type="veh_passenger"/>
    <trip depart="43393.93" departLane="best" from="323563821#2" id="veh216_43200" to="773159596#1" type="veh_passenger"/>
    <trip depart="43394.82" departLane="best" from="665453544" id="veh217_43200" to="47070283#3" type="veh_passenger"/>
    <trip depart="43395.72" departLane="best" from="480284575" id="veh218_43200" to="235424958#4" type="veh_passenger"/>
    <trip depart="43396.62" departLane="best" from="622873931#0" id="veh219_43200" to="25931028#2" type="veh_passenger"/>
    <trip depart="43397.52" departLane="best" from="665453553" id="veh220_43200" to="489629072#3" type="veh_passenger"/>
    <trip depart="43399.31" departLane="best" from="1036079534" id="veh222_43200" to="479621758#3" type="veh_passenger"/>
    <trip depart="43402.01" departLane="best" from="-255416209#0" id="veh225_43200" to="1036342983" type="veh_passenger"/>
    <trip depart="43403.8" departLane="best" from="25931909" id="veh227_43200" to="-479797345#1" type="veh_passenger"/>
    <trip depart="43406.5" departLane="best" from="156148419#4" id="veh230_43200" to="256157279" type="veh_passenger"/>
    <trip depart="43409.19" departLane="best" from="321073225#1" id="veh233_43200" to="479816717#0" type="veh_passenger"/>
    <trip depart="43410.09" departLane="best" from="625397297" id="veh234_43200" to="491628727#0" type="veh_passenger"/>
    <trip depart="43410.98" departLane="best" from="1042716324" id="veh235_43200" to="-100646252#0" type="veh_passenger"/>
    <trip depart="43411.88" departLane="best" from="1041544550#0" id="veh236_43200" to="490216931#1" type="veh_passenger"/>
    <trip depart="43412.78" departLane="best" from="623891513" id="veh237_43200" to="773159597#3" type="veh_passenger"/>
    <trip depart="43413.68" departLane="best" from="159453449#7" id="veh238_43200" to="490192688#3-AddedOnRampEdge" type="veh_passenger"/>
    <trip depart="43414.58" departLane="best" from="25931950-AddedOffRampEdge" id="veh239_43200" to="321073948" type="veh_passenger"/>
    <trip depart="43416.37" departLane="best" from="1041504064" id="veh241_43200" to="479797321" type="veh_passenger"/>
    <trip depart="43418.17" departLane="best" from="224737849#3" id="veh243_43200" to="-479797258#6" type="veh_passenger"/>
    <trip depart="43419.96" departLane="best" from="156148397#3" id="veh245_43200" to="25934381#0" type="veh_passenger"/>
    <trip depart="43420.86" departLane="best" from="-156148407#1" id="veh246_43200" to="479751358#0" type="veh_passenger"/>
    <trip depart="43421.76" departLane="best" from="-479797279" id="veh247_43200" to="166563429#5" type="veh_passenger"/>
    <trip depart="43422.66" departLane="best" from="-216060954#0" id="veh248_43200" to="1042449170" type="veh_passenger"/>
    <trip depart="43423.55" departLane="best" from="490718877#0" id="veh249_43200" to="1042449170" type="veh_passenger"/>
    <trip depart="43425.35" departLane="best" from="1036313338" id="veh251_43200" to="-25934385#0" type="veh_passenger"/>
    <trip depart="43426.25" departLane="best" from="-1039220886" id="veh252_43200" to="255416245#1" type="veh_passenger"/>
    <trip depart="43427.15" departLane="best" from="479797258#5" id="veh253_43200" to="538068339#5" type="veh_passenger"/>
    <trip depart="43428.04" departLane="best" from="479797271" id="veh254_43200" to="490216934#0" type="veh_passenger"/>
    <trip depart="43428.94" departLane="best" from="773159597#1" id="veh255_43200" to="-623891512" type="veh_passenger"/>
    <trip depart="43430.74" departLane="best" from="-479621763#11" id="veh257_43200" to="479797310#2" type="veh_passenger"/>
    <trip depart="43431.63" departLane="best" from="267535712" id="veh258_43200" to="100646248#1" type="veh_passenger"/>
    <trip depart="43432.53" departLane="best" from="480250287#2" id="veh259_43200" to="491628727#1" type="veh_passenger"/>
    <trip depart="43433.43" departLane="best" from="-480284570" id="veh260_43200" to="379986688#5" type="veh_passenger"/>
    <trip depart="43434.33" departLane="best" from="490165001#0" id="veh261_43200" to="-479621751#0" type="veh_passenger"/>
    <trip depart="43436.12" departLane="best" from="-475316652#3" id="veh263_43200" to="-159457890#2" type="veh_passenger"/>
    <trip depart="43437.02" departLane="best" from="1040882902#0" id="veh264_43200" to="479797318#0" type="veh_passenger"/>
    <trip depart="43437.92" departLane="best" from="774852739#0" id="veh265_43200" to="1042716327" type="veh_passenger"/>
    <trip depart="43439.71" departLane="best" from="479812143#3" id="veh267_43200" to="479613108#1" type="veh_passenger"/>
    <trip depart="43441.51" departLane="best" from="623891500#1" id="veh269_43200" to="321073251" type="veh_passenger"/>
    <trip depart="43442.41" departLane="best" from="491638590#0" id="veh270_43200" to="1041521601" type="veh_passenger"/>
    <trip depart="43443.31" departLane="best" from="159455874#5" id="veh271_43200" to="1042334799" type="veh_passenger"/>
    <trip depart="43444.2" departLane="best" from="248698674#2" id="veh272_43200" to="1041286369" type="veh_passenger"/>
    <trip depart="43446" departLane="best" from="-475316645#0" id="veh274_43200" to="774852739#1" type="veh_passenger"/>
    <trip depart="43446.9" departLane="best" from="479621763#6" id="veh275_43200" to="622804124#1" type="veh_passenger"/>
    <trip depart="43448.69" departLane="best" from="483726628#1" id="veh277_43200" to="775380332#4" type="veh_passenger"/>
    <trip depart="43449.59" departLane="best" from="1036341364#0" id="veh278_43200" to="61163785#3" type="veh_passenger"/>
    <trip depart="43450.49" departLane="best" from="25931907" id="veh279_43200" to="216060954#3" type="veh_passenger"/>
    <trip depart="43451.39" departLane="best" from="159455892#3" id="veh280_43200" to="481854596#2" type="veh_passenger"/>
    <trip depart="43452.28" departLane="best" from="1036341362#1" id="veh281_43200" to="623474399#2" type="veh_passenger"/>
    <trip depart="43453.18" departLane="best" from="622873931#0" id="veh282_43200" to="-320755658#2" type="veh_passenger"/>
    <trip depart="43454.08" departLane="best" from="665451328#4" id="veh283_43200" to="1036052086#2" type="veh_passenger"/>
    <trip depart="43454.98" departLane="best" from="216065940#2" id="veh284_43200" to="390383583#0" type="veh_passenger"/>
    <trip depart="43457.67" departLane="best" from="-856908280" id="veh287_43200" to="584750383#1" type="veh_passenger"/>
    <trip depart="43459.47" departLane="best" from="480250295#0" id="veh289_43200" to="1036341355" type="veh_passenger"/>
    <trip depart="43461.26" departLane="best" from="-256157283#0" id="veh291_43200" to="480284575" type="veh_passenger"/>
    <trip depart="43462.16" departLane="best" from="235427743#0" id="veh292_43200" to="491628725#0" type="veh_passenger"/>
    <trip depart="43463.06" departLane="best" from="479812143#3" id="veh293_43200" to="479751374#1" type="veh_passenger"/>
    <trip depart="43463.96" departLane="best" from="235436489#0" id="veh294_43200" to="583797089#2" type="veh_passenger"/>
    <trip depart="43464.85" departLane="best" from="-25934395#4" id="veh295_43200" to="100646269#0" type="veh_passenger"/>
    <trip depart="43465.75" departLane="best" from="479812147#0" id="veh296_43200" to="1039133060" type="veh_passenger"/>
    <trip depart="43467.55" departLane="best" from="25931028#4" id="veh298_43200" to="156148419#3" type="veh_passenger"/>
    <trip depart="43468.44" departLane="best" from="489924065" id="veh299_43200" to="1040929341" type="veh_passenger"/>
    <trip depart="43469.34" departLane="best" from="480250296#2" id="veh300_43200" to="1036341350#3" type="veh_passenger"/>
    <trip depart="43470.24" departLane="best" from="1036114082" id="veh301_43200" to="-479621763#9" type="veh_passenger"/>
    <trip depart="43471.14" departLane="best" from="-61163785#3" id="veh302_43200" to="-479621763#5" type="veh_passenger"/>
    <trip depart="43472.04" departLane="best" from="25931033" id="veh303_43200" to="491628725#3" type="veh_passenger"/>
    <trip depart="43472.93" departLane="best" from="-491638583#3" id="veh304_43200" to="100646242#1" type="veh_passenger"/>
    <trip depart="43475.63" departLane="best" from="1036360487#6" id="veh307_43200" to="-475316653#0" type="veh_passenger"/>
    <trip depart="43476.52" departLane="best" from="-622805764#1" id="veh308_43200" to="1032987570#1" type="veh_passenger"/>
    <trip depart="43479.22" departLane="best" from="854040751" id="veh311_43200" to="25931028#5" type="veh_passenger"/>
    <trip depart="43480.12" departLane="best" from="479816723#2" id="veh312_43200" to="-479797258#1" type="veh_passenger"/>
    <trip depart="43481.91" departLane="best" from="658130902" id="veh314_43200" to="26234533#2" type="veh_passenger"/>
    <trip depart="43482.81" departLane="best" from="224737850#2" id="veh315_43200" to="159453472#0" type="veh_passenger"/>
    <trip depart="43483.71" departLane="best" from="-490718877#2" id="veh316_43200" to="-248698662" type="veh_passenger"/>
    <trip depart="43485.5" departLane="best" from="618371797" id="veh318_43200" to="1046628053" type="veh_passenger"/>
    <trip depart="43486.4" departLane="best" from="-255416142#4" id="veh319_43200" to="479621745#1" type="veh_passenger"/>
    <trip depart="43488.2" departLane="best" from="267535712" id="veh321_43200" to="1039133060" type="veh_passenger"/>
    <trip depart="43489.09" departLane="best" from="994962121#3" id="veh322_43200" to="-479621763#11" type="veh_passenger"/>
    <trip depart="43489.99" departLane="best" from="491628725#1" id="veh323_43200" to="379986688#1" type="veh_passenger"/>
    <trip depart="43491.79" departLane="best" from="256157278#0" id="veh325_43200" to="159455875#2" type="veh_passenger"/>
    <trip depart="43492.69" departLane="best" from="166563429#5" id="veh326_43200" to="625413762#1" type="veh_passenger"/>
    <trip depart="43493.58" departLane="best" from="901285521" id="veh327_43200" to="1039133060" type="veh_passenger"/>
    <trip depart="43494.48" departLane="best" from="479621743#1" id="veh328_43200" to="379986768" type="veh_passenger"/>
    <trip depart="43495.38" departLane="best" from="489606084-AddedOnRampEdge" id="veh329_43200" to="765467137" type="veh_passenger"/>
    <trip depart="43496.28" departLane="best" from="-665451328#7" id="veh330_43200" to="-775599627#0" type="veh_passenger"/>
    <trip depart="43497.17" departLane="best" from="479797300#0" id="veh331_43200" to="-480282280" type="veh_passenger"/>
    <trip depart="43498.07" departLane="best" from="-480475790#0" id="veh332_43200" to="-256157278#0" type="veh_passenger"/>
    <trip depart="43498.97" departLane="best" from="-100646234" id="veh333_43200" to="159455875#2" type="veh_passenger"/>