<routes>
    <vType id="veh_passenger" vClass="passenger"/>
    <trip depart="68400" departLane="best" from="479751369#4" id="veh0_68400" to="-159455892#6" type="veh_passenger"/>
    <trip depart="68400.9" departLane="best" from="1036346145" id="veh1_68400" to="100646295#1" type="veh_passenger"/>
    <trip depart="68401.8" departLane="best" from="486825027#0" id="veh2_68400" to="479797313#7" type="veh_passenger"/>
    <trip depart="68402.69" departLane="best" from="665453544" id="veh3_68400" to="-320755659#0" type="veh_passenger"/>
    <trip depart="68404.49" departLane="best" from="100646220#1" id="veh5_68400" to="235424958#4" type="veh_passenger"/>
    <trip depart="68405.39" departLane="best" from="-155033028#1" id="veh6_68400" to="-623891502#0" type="veh_passenger"/>
    <trip depart="68406.28" departLane="best" from="479797258#4" id="veh7_68400" to="25931028#0" type="veh_passenger"/>
    <trip depart="68407.18" departLane="best" from="100646245#3" id="veh8_68400" to="321071861#2" type="veh_passenger"/>
    <trip depart="68408.98" departLane="best" from="1041521602" id="veh10_68400" to="-480276564" type="veh_passenger"/>
    <trip depart="68409.88" departLane="best" from="773876919#5" id="veh11_68400" to="1041187875-AddedOnRampEdge" type="veh_passenger"/>
    <trip depart="68411.67" departLane="best" from="623474397#3" id="veh13_68400" to="321073948" type="veh_passenger"/>
    <trip depart="68412.57" departLane="best" from="61163715#4" id="veh14_68400" to="481854591#1" type="veh_passenger"/>
    <trip depart="68413.47" departLane="best" from="25931033" id="veh15_68400" to="854001005#0" type="veh_passenger"/>
    <trip depart="68415.26" departLane="best" from="622809059#0" id="veh17_68400" to="475316653#4" type="veh_passenger"/>
    <trip depart="68416.16" departLane="best" from="625413783#2" id="veh18_68400" to="320755665" type="veh_passenger"/>
    <trip depart="68419.75" departLane="best" from="-379986746#0" id="veh22_68400" to="1036341357#0" type="veh_passenger"/>
    <trip depart="68421.55" departLane="best" from="1042693362#0" id="veh24_68400" to="-775380332#0" type="veh_passenger"/>
    <trip depart="68422.45" departLane="best" from="1036341360#1" id="veh25_68400" to="743386900" type="veh_passenger"/>
    <trip depart="68423.34" departLane="best" from="479797253#1" id="veh26_68400" to="379986751" type="veh_passenger"/>
    <trip depart="68425.14" departLane="best" from="-480252897#2" id="veh28_68400" to="1042449170" type="veh_passenger"/>
    <trip depart="68426.04" departLane="best" from="901285519#0" id="veh29_68400" to="479621763#4" type="veh_passenger"/>
    <trip depart="68427.83" departLane="best" from="623128861" id="veh31_68400" to="491638585" type="veh_passenger"/>
    <trip depart="68430.53" departLane="best" from="-775380332#5" id="veh34_68400" to="765449928" type="veh_passenger"/>
    <trip depart="68432.32" departLane="best" from="479797277#5" id="veh36_68400" to="1042716326" type="veh_passenger"/>
    <trip depart="68433.22" departLane="best" from="742718528#2" id="veh37_68400" to="166563426#4" type="veh_passenger"/>
    <trip depart="68434.12" departLane="best" from="1036341358#0" id="veh38_68400" to="1036060565" type="veh_passenger"/>
    <trip depart="68435.01" departLane="best" from="26234656#0" id="veh39_68400" to="1036099955" type="veh_passenger"/>
    <trip depart="68435.91" departLane="best" from="321073225#2" id="veh40_68400" to="684128578#0" type="veh_passenger"/>
    <trip depart="68436.81" departLane="best" from="156148402#2" id="veh41_68400" to="100646256#0" type="veh_passenger"/>
    <trip depart="68437.71" departLane="best" from="994962124#6" id="veh42_68400" to="235424974#1" type="veh_passenger"/>
    <trip depart="68439.5" departLane="best" from="-475316653#5" id="veh44_68400" to="479613108#2" type="veh_passenger"/>
    <trip depart="68440.4" departLane="best" from="583797089#1" id="veh45_68400" to="156148413#0" type="veh_passenger"/>
    <trip depart="68441.3" departLane="best" from="-248698662" id="veh46_68400" to="1042676039" type="veh_passenger"/>
    <trip depart="68442.2" departLane="best" from="994962124#3" id="veh47_68400" to="248698674#2" type="veh_passenger"/>
    <trip depart="68443.09" departLane="best" from="854001005#0" id="veh48_68400" to="625413762#3" type="veh_passenger"/>
    <trip depart="68443.99" departLane="best" from="-1036047409#0" id="veh49_68400" to="480284576#2" type="veh_passenger"/>
    <trip depart="68444.89" departLane="best" from="479797341#1-AddedOnRampEdge" id="veh50_68400" to="255416224#2" type="veh_passenger"/>
    <trip depart="68445.79" departLane="best" from="1036341360#0" id="veh51_68400" to="479621763#7" type="veh_passenger"/>
    <trip depart="68446.69" departLane="best" from="-475319370" id="veh52_68400" to="159453447#8" type="veh_passenger"/>
    <trip depart="68447.58" departLane="best" from="178774212#0" id="veh53_68400" to="773159597#3" type="veh_passenger"/>
    <trip depart="68449.38" departLane="best" from="248698668#12" id="veh55_68400" to="-490165001#1" type="veh_passenger"/>
    <trip depart="68451.17" departLane="best" from="1039159932#1" id="veh57_68400" to="479621763#11" type="veh_passenger"/>
    <trip depart="68452.97" departLane="best" from="491462355" id="veh59_68400" to="255416245#1" type="veh_passenger"/>
    <trip depart="68453.87" departLane="best" from="491638583#0" id="veh60_68400" to="255416142#2" type="veh_passenger"/>
    <trip depart="68454.77" departLane="best" from="-100646217#1" id="veh61_68400" to="1040911960" type="veh_passenger"/>
    <trip depart="68459.26" departLane="best" from="-256157283#0" id="veh66_68400" to="216065938#0" type="veh_passenger"/>
    <trip depart="68460.15" departLane="best" from="-248698668#10" id="veh67_68400" to="491628725#1-AddedOffRampEdge" type="veh_passenger"/>
    <trip depart="68461.05" departLane="best" from="491628725#1-AddedOffRampEdge" id="veh68_68400" to="-479797283#1" type="veh_passenger"/>
    <trip depart="68461.95" departLane="best" from="224737854#2" id="veh69_68400" to="25931028#3" type="veh_passenger"/>
    <trip depart="68464.64" departLane="best" from="25931909" id="veh72_68400" to="481854591#1" type="veh_passenger"/>
    <trip depart="68465.54" departLane="best" from="-625413768#3" id="veh73_68400" to="1039159932#1" type="veh_passenger"/>
    <trip depart="68466.44" departLane="best" from="994962124#2" id="veh74_68400" to="479797239#0" type="veh_passenger"/>
    <trip depart="68468.23" departLane="best" from="-479621745#7" id="veh76_68400" to="1032262905#1" type="veh_passenger"/>
    <trip depart="68469.13" departLane="best" from="1041504065" id="veh77_68400" to="321071861#1" type="veh_passenger"/>
    <trip depart="68470.03" departLane="best" from="1032665742" id="veh78_68400" to="100646260#0" type="veh_passenger"/>
    <trip depart="68470.93" departLane="best" from="-248698668#8" id="veh79_68400" to="479621745#7" type="veh_passenger"/>
    <trip depart="68472.72" departLane="best" from="625413768#2" id="veh81_68400" to="-255416245#0" type="veh_passenger"/>
    <trip depart="68474.52" departLane="best" from="-994875416" id="veh83_68400" to="-479797308" type="veh_passenger"/>
    <trip depart="68475.42" departLane="best" from="742727484#1" id="veh84_68400" to="26234533#0" type="veh_passenger"/>
    <trip depart="68476.31" departLane="best" from="224737852#6" id="veh85_68400" to="538068606-AddedOffRampEdge" type="veh_passenger"/>
    <trip depart="68477.21" departLane="best" from="-320758120" id="veh86_68400" to="156148432#0" type="veh_passenger"/>
    <trip depart="68479.01" departLane="best" from="481854588#3" id="veh88_68400" to="479797313#0" type="veh_passenger"/>
    <trip depart="68480.8" departLane="best" from="156148407#0" id="veh90_68400" to="1041235840#1-AddedOffRampEdge" type="veh_passenger"/>
    <trip depart="68481.7" departLane="best" from="625413783#2" id="veh91_68400" to="1036062887" type="veh_passenger"/>
    <trip depart="68482.6" departLane="best" from="-61163715#2" id="veh92_68400" to="159455874#9" type="veh_passenger"/>
    <trip depart="68483.5" departLane="best" from="159453472#0" id="veh93_68400" to="1036341357#1" type="veh_passenger"/>
    <trip depart="68485.29" departLane="best" from="166563429#6" id="veh95_68400" to="625413766#0" type="veh_passenger"/>
    <trip depart="68487.09" departLane="best" from="996026061#1" id="veh97_68400" to="622873931#7" type="veh_passenger"/>
    <trip depart="68487.99" departLane="best" from="854001000#1" id="veh98_68400" to="742727471" type="veh_passenger"/>
    <trip depart="68489.78" departLane="best" from="235427270" id="veh100_68400" to="100646217#3" type="veh_passenger"/>
    <trip depart="68492.47" departLane="best" from="1036341358#1" id="veh103_68400" to="538068606-AddedOffRampEdge" type="veh_passenger"/>
    <trip depart="68493.37" departLane="best" from="178774217#1" id="veh104_68400" to="156148417" type="veh_passenger"/>
    <trip depart="68495.17" departLane="best" from="25934395#5" id="veh106_68400" to="480283416#1" type="veh_passenger"/>
    <trip depart="68496.07" departLane="best" from="-480250296#0" id="veh107_68400" to="1036360487#6" type="veh_passenger"/>
    <trip depart="68496.96" departLane="best" from="854001000#0" id="veh108_68400" to="320758120" type="veh_passenger"/>
    <trip depart="68497.86" departLane="best" from="25931909" id="veh109_68400" to="490192688#5" type="veh_passenger"/>
    <trip depart="68498.76" departLane="best" from="-234517427#4" id="veh110_68400" to="320758139" type="veh_passenger"/>
    <trip depart="68499.66" departLane="best" from="248698670#0" id="veh111_68400" to="623891500#1" type="veh_passenger"/>
    <trip depart="68500.55" departLane="best" from="-480250299#0" id="veh112_68400" to="774852739#1" type="veh_passenger"/>
    <trip depart="68502.35" departLane="best" from="323563821#1" id="veh114_68400" to="479797313#4" type="veh_passenger"/>
    <trip depart="68505.04" departLane="best" from="323563821#0" id="veh117_68400" to="475316658#1" type="veh_passenger"/>
    <trip depart="68505.94" departLane="best" from="159453449#8" id="veh118_68400" to="320758139" type="veh_passenger"/>
    <trip depart="68506.84" departLane="best" from="256157278#1" id="veh119_68400" to="742727484#3" type="veh_passenger"/>
    <trip depart="68507.74" departLane="best" from="-658095569#2" id="veh120_68400" to="480276562" type="veh_passenger"/>
    <trip depart="68508.63" departLane="best" from="1036060565" id="veh121_68400" to="1042716327" type="veh_passenger"/>
    <trip depart="68509.53" departLane="best" from="479797313#7" id="veh122_68400" to="1038266651" type="veh_passenger"/>
    <trip depart="68510.43" departLane="best" from="1040925852" id="veh123_68400" to="490213894-AddedOffRampEdge" type="veh_passenger"/>
    <trip depart="68511.33" departLane="best" from="-248698670#2" id="veh124_68400" to="166563426#3" type="veh_passenger"/>
    <trip depart="68512.23" departLane="best" from="-255416142#1" id="veh125_68400" to="100646208" type="veh_passenger"/>
    <trip depart="68513.12" departLane="best" from="1036341358#1" id="veh126_68400" to="742727484#0" type="veh_passenger"/>
    <trip depart="68514.02" departLane="best" from="1042693361#1" id="veh127_68400" to="-480282281#0" type="veh_passenger"/>
    <trip depart="68514.92" departLane="best" from="622873931#7" id="veh128_68400" to="480250293#0" type="veh_passenger"/>
    <trip depart="68515.82" departLane="best" from="475316653#6" id="veh129_68400" to="854052897#4" type="veh_passenger"/>
    <trip depart="68516.71" departLane="best" from="479797277#2" id="veh130_68400" to="-100646260#1" type="veh_passenger"/>
    <trip depart="68517.61" departLane="best" from="618364867#1" id="veh131_68400" to="1038110939" type="veh_passenger"/>
    <trip depart="68518.51" departLane="best" from="479797310#0" id="veh132_68400" to="765449926#0" type="veh_passenger"/>
    <trip depart="68520.31" departLane="best" from="-475316645#2" id="veh134_68400" to="25931028#5" type="veh_passenger"/>
    <trip depart="68523" departLane="best" from="479621763#12" id="veh137_68400" to="1036099956#3" type="veh_passenger"/>
    <trip depart="68523.9" departLane="best" from="235427743#0" id="veh138_68400" to="696730624" type="veh_passenger"/>
    <trip depart="68524.8" departLane="best" from="623474397#0" id="veh139_68400" to="-379986688#2" type="veh_passenger"/>
    <trip depart="68525.69" departLane="best" from="159453472#4" id="veh140_68400" to="1036341355" type="veh_passenger"/>
    <trip depart="68526.59" departLane="best" from="-100646242#1" id="veh141_68400" to="491632371#2" type="veh_passenger"/>
    <trip depart="68527.49" departLane="best" from="479621774#2" id="veh142_68400" to="1036099953" type="veh_passenger"/>
    <trip depart="68528.39" departLane="best" from="489606090" id="veh143_68400" to="25931028#4" type="veh_passenger"/>
    <trip depart="68529.28" departLane="best" from="159455874#4" id="veh144_68400" to="-100646264#0" type="veh_passenger"/>
    <trip depart="68530.18" departLane="best" from="-255416153" id="veh145_68400" to="665451330#1" type="veh_passenger"/>
    <trip depart="68531.98" departLane="best" from="622873934#0" id="veh147_68400" to="320758130#1" type="veh_passenger"/>
    <trip depart="68532.88" departLane="best" from="-479816722#1" id="veh148_68400" to="-479797258#5" type="veh_passenger"/>
    <trip depart="68533.77" departLane="best" from="1040260533" id="veh149_68400" to="684128578#2" type="veh_passenger"/>
    <trip depart="68534.67" departLane="best" from="583797089#8" id="veh150_68400" to="625413762#3" type="veh_passenger"/>
    <trip depart="68535.57" departLane="best" from="684128578#0" id="veh151_68400" to="-775380332#4" type="veh_passenger"/>
    <trip depart="68537.36" departLane="best" from="491638583#6" id="veh153_68400" to="665451330#2" type="veh_passenger"/>
    <trip depart="68538.26" departLane="best" from="156148419#1" id="veh154_68400" to="475319371#0" type="veh_passenger"/>
    <trip depart="68540.06" departLane="best" from="625418511" id="veh156_68400" to="854040750" type="veh_passenger"/>
    <trip depart="68543.65" departLane="best" from="61163710#13" id="veh160_68400" to="625413783#2" type="veh_passenger"/>
    <trip depart="68545.44" departLane="best" from="538068340#1" id="veh162_68400" to="-479613101#1" type="veh_passenger"/>
    <trip depart="68547.24" departLane="best" from="100646256#1" id="veh164_68400" to="618371794" type="veh_passenger"/>
    <trip depart="68548.14" departLane="best" from="216060954#1" id="veh165_68400" to="1039133060" type="veh_passenger"/>
    <trip depart="68549.04" departLane="best" from="583797089#7" id="veh166_68400" to="1032987570#1" type="veh_passenger"/>
    <trip depart="68549.93" departLane="best" from="-1042698679" id="veh167_68400" to="-622804129#0" type="veh_passenger"/>
    <trip depart="68550.83" departLane="best" from="1041235840#0" id="veh168_68400" to="625413783#3" type="veh_passenger"/>
    <trip depart="68551.73" departLane="best" from="479751865#1" id="veh169_68400" to="1042728028#1" type="veh_passenger"/>
    <trip depart="68552.63" departLane="best" from="854052892-AddedOffRampEdge" id="veh170_68400" to="255416223#1" type="veh_passenger"/>
    <trip depart="68553.52" departLane="best" from="764267604" id="veh171_68400" to="-479621752#0" type="veh_passenger"/>
    <trip depart="68554.42" departLane="best" from="854001002#1" id="veh172_68400" to="-490165001#1" type="veh_passenger"/>
    <trip depart="68555.32" departLane="best" from="775122579#1" id="veh173_68400" to="1036114082" type="veh_passenger"/>
    <trip depart="68556.22" departLane="best" from="-475316653#0" id="veh174_68400" to="159453447#8" type="veh_passenger"/>
    <trip depart="68557.12" departLane="best" from="481854585" id="veh175_68400" to="1039159937" type="veh_passenger"/>
    <trip depart="68558.91" departLane="best" from="123423117#1" id="veh177_68400" to="320755661#1" type="veh_passenger"/>
    <trip depart="68559.81" departLane="best" from="1036338535" id="veh178_68400" to="480250299#1" type="veh_passenger"/>
    <trip depart="68560.71" departLane="best" from="-100646220#2" id="veh179_68400" to="742727470" type="veh_passenger"/>
    <trip depart="68562.5" departLane="best" from="489606090" id="veh181_68400" to="479797310#7" type="veh_passenger"/>
    <trip depart="68563.4" departLane="best" from="1042449169#1" id="veh182_68400" to="-255416229#2" type="veh_passenger"/>
    <trip depart="68565.2" departLane="best" from="1040882903" id="veh184_68400" to="623138417" type="veh_passenger"/>
    <trip depart="68566.09" departLane="best" from="480284576#1" id="veh185_68400" to="1038324580" type="veh_passenger"/>
    <trip depart="68566.99" departLane="best" from="1040591005" id="veh186_68400" to="145126347" type="veh_passenger"/>
    <trip depart="68567.89" departLane="best" from="156148404#3" id="veh187_68400" to="1036360487#5" type="veh_passenger"/>
    <trip depart="68568.79" departLane="best" from="-479621763#5" id="veh188_68400" to="156148404#2" type="veh_passenger"/>
    <trip depart="68569.69" departLane="best" from="764267605" id="veh189_68400" to="479797318#0" type="veh_passenger"/>
    <trip depart="68571.48" departLane="best" from="1039159935" id="veh191_68400" to="25931028#2" type="veh_passenger"/>
    <trip depart="68572.38" departLane="best" from="-100646217#0" id="veh192_68400" to="1036342983" type="veh_passenger"/>
    <trip depart="68573.28" departLane="best" from="159455874#8" id="veh193_68400" to="320758122#1" type="veh_passenger"/>
    <trip depart="68575.07" departLane="best" from="166563429#4" id="veh195_68400" to="100646217#3" type="veh_passenger"/>
    <trip depart="68575.97" departLane="best" from="224737854#0" id="veh196_68400" to="684135634#2" type="veh_passenger"/>
    <trip depart="68576.87" departLane="best" from="583797089#8" id="veh197_68400" to="-483726628#0" type="veh_passenger"/>
    <trip depart="68578.66" departLane="best" from="479621758#4" id="veh199_68400" to="1041187875" type="veh_passenger"/>
    <trip depart="68580.46" departLane="best" from="479797318#4" id="veh201_68400" to="1032262905#1" type="veh_passenger"/>
    <trip depart="68581.36" departLane="best" from="-623891515#1" id="veh202_68400" to="-159455892#4" type="veh_passenger"/>
    <trip depart="68583.15" departLane="best" from="623474399#3" id="veh204_68400" to="-255416251#2" type="veh_passenger"/>
    <trip depart="68584.05" departLane="best" from="159453447#12" id="veh205_68400" to="479621745#2" type="veh_passenger"/>
    <trip depart="68584.95" departLane="best" from="-622873929#0" id="veh206_68400" to="479816723#0" type="veh_passenger"/>
    <trip depart="68585.85" departLane="best" from="245763347#0" id="veh207_68400" to="1036052086#2" type="veh_passenger"/>
    <trip depart="68586.74" departLane="best" from="479797279" id="veh208_68400" to="-100646248#2" type="veh_passenger"/>
    <trip depart="68588.54" departLane="best" from="-475316645#2" id="veh210_68400" to="156148419#2" type="veh_passenger"/>
    <trip depart="68589.44" departLane="best" from="-483796488#0" id="veh211_68400" to="773876919#3" type="veh_passenger"/>
    <trip depart="68592.13" departLane="best" from="178774219#2" id="veh214_68400" to="61163710#1" type="veh_passenger"/>
    <trip depart="68593.93" departLane="best" from="323563821#2" id="veh216_68400" to="773159596#1" type="veh_passenger"/>
    <trip depart="68594.82" departLane="best" from="665453544" id="veh217_68400" to="47070283#3" type="veh_passenger"/>
    <trip depart="68595.72" departLane="best" from="480284575" id="veh218_68400" to="235424958#4" type="veh_passenger"/>
    <trip depart="68596.62" departLane="best" from="622873931#0" id="veh219_68400" to="25931028#2" type="veh_passenger"/>
    <trip depart="68597.52" departLane="best" from="665453553" id="veh220_68400" to="489629072#3" type="veh_passenger"/>
    <trip depart="68599.31" departLane="best" from="1036079534" id="veh222_68400" to="479621758#3" type="veh_passenger"/>
    <trip depart="68602.01" departLane="best" from="-255416209#0" id="veh225_68400" to="1036342983" type="veh_passenger"/>
    <trip depart="68603.8" departLane="best" from="25931909" id="veh227_68400" to="-479797345#1" type="veh_passenger"/>
    <trip depart="68606.5" departLane="best" from="156148419#4" id="veh230_68400" to="256157279" type="veh_passenger"/>
    <trip depart="68609.19" departLane="best" from="321073225#1" id="veh233_68400" to="479816717#0" type="veh_passenger"/>
    <trip depart="68610.09" departLane="best" from="625397297" id="veh234_68400" to="491628727#0" type="veh_passenger"/>
    <trip depart="68610.98" departLane="best" from="1042716324" id="veh235_68400" to="-100646252#0" type="veh_passenger"/>
    <trip depart="68611.88" departLane="best" from="1041544550#0" id="veh236_68400" to="490216931#1" type="veh_passenger"/>
    <trip depart="68612.78" departLane="best" from="623891513" id="veh237_68400" to="773159597#3" type="veh_passenger"/>
    <trip depart="68613.68" departLane="best" from="159453449#7" id="veh238_68400" to="490192688#3-AddedOnRampEdge" type="veh_passenger"/>
    <trip depart="68614.58" departLane="best" from="25931950-AddedOffRampEdge" id="veh239_68400" to="321073948" type="veh_passenger"/>
    <trip depart="68616.37" departLane="best" from="1041504064" id="veh241_68400" to="479797321" type="veh_passenger"/>
    <trip depart="68618.17" departLane="best" from="224737849#3" id="veh243_68400" to="-479797258#6" type="veh_passenger"/>
    <trip depart="68619.96" departLane="best" from="156148397#3" id="veh245_68400" to="25934381#0" type="veh_passenger"/>
    <trip depart="68620.86" departLane="best" from="-156148407#1" id="veh246_68400" to="479751358#0" type="veh_passenger"/>
    <trip depart="68621.76" departLane="best" from="-479797279" id="veh247_68400" to="166563429#5" type="veh_passenger"/>
    <trip depart="68622.66" departLane="best" from="-216060954#0" id="veh248_68400" to="1042449170" type="veh_passenger"/>
    <trip depart="68623.55" departLane="best" from="490718877#0" id="veh249_68400" to="1042449170" type="veh_passenger"/>
    <trip depart="68625.35" departLane="best" from="1036313338" id="veh251_68400" to="-25934385#0" type="veh_passenger"/>
    <trip depart="68626.25" departLane="best" from="-1039220886" id="veh252_68400" to="255416245#1" type="veh_passenger"/>
    <trip depart="68627.15" departLane="best" from="479797258#5" id="veh253_68400" to="538068339#5" type="veh_passenger"/>
    <trip depart="68628.04" departLane="best" from="479797271" id="veh254_68400" to="490216934#0" type="veh_passenger"/>
    <trip depart="68628.94" departLane="best" from="773159597#1" id="veh255_68400" to="-623891512" type="veh_passenger"/>
    <trip depart="68630.74" departLane="best" from="-479621763#11" id="veh257_68400" to="479797310#2" type="veh_passenger"/>
    <trip depart="68631.63" departLane="best" from="267535712" id="veh258_68400" to="100646248#1" type="veh_passenger"/>
    <trip depart="68632.53" departLane="best" from="480250287#2" id="veh259_68400" to="491628727#1" type="veh_passenger"/>
    <trip depart="68633.43" departLane="best" from="-480284570" id="veh260_68400" to="379986688#5" type="veh_passenger"/>
    <trip depart="68634.33" departLane="best" from="490165001#0" id="veh261_68400" to="-479621751#0" type="veh_passenger"/>
    <trip depart="68636.12" departLane="best" from="-475316652#3" id="veh263_68400" to="-159457890#2" type="veh_passenger"/>
    <trip depart="68637.02" departLane="best" from="1040882902#0" id="veh264_68400" to="479797318#0" type="veh_passenger"/>
    <trip depart="68637.92" departLane="best" from="774852739#0" id="veh265_68400" to="1042716327" type="veh_passenger"/>
    <trip depart="68639.71" departLane="best" from="479812143#3" id="veh267_68400" to="479613108#1" type="veh_passenger"/>
    <trip depart="68641.51" departLane="best" from="623891500#1" id="veh269_68400" to="321073251" type="veh_passenger"/>
    <trip depart="68642.41" departLane="best" from="491638590#0" id="veh270_68400" to="1041521601" type="veh_passenger"/>
    <trip depart="68643.31" departLane="best" from="159455874#5" id="veh271_68400" to="1042334799" type="veh_passenger"/>
    <trip depart="68644.2" departLane="best" from="248698674#2" id="veh272_68400" to="1041286369" type="veh_passenger"/>
    <trip depart="68646" departLane="best" from="-475316645#0" id="veh274_68400" to="774852739#1" type="veh_passenger"/>
    <trip depart="68646.9" departLane="best" from="479621763#6" id="veh275_68400" to="622804124#1" type="veh_passenger"/>
    <trip depart="68648.69" departLane="best" from="483726628#1" id="veh277_68400" to="775380332#4" type="veh_passenger"/>
    <trip depart="68649.59" departLane="best" from="1036341364#0" id="veh278_68400" to="61163785#3" type="veh_passenger"/>
    <trip depart="68650.49" departLane="best" from="25931907" id="veh279_68400" to="216060954#3" type="veh_passenger"/>
    <trip depart="68651.39" departLane="best" from="159455892#3" id="veh280_68400" to="481854596#2" type="veh_passenger"/>
    <trip depart="68652.28" departLane="best" from="1036341362#1" id="veh281_68400" to="623474399#2" type="veh_passenger"/>
    <trip depart="68653.18" departLane="best" from="622873931#0" id="veh282_68400" to="-320755658#2" type="veh_passenger"/>
    <trip depart="68654.08" departLane="best" from="665451328#4" id="veh283_68400" to="1036052086#2" type="veh_passenger"/>
    <trip depart="68654.98" departLane="best" from="216065940#2" id="veh284_68400" to="390383583#0" type="veh_passenger"/>
    <trip depart="68657.67" departLane="best" from="-856908280" id="veh287_68400" to="584750383#1" type="veh_passenger"/>
    <trip depart="68659.47" departLane="best" from="480250295#0" id="veh289_68400" to="1036341355" type="veh_passenger"/>
    <trip depart="68661.26" departLane="best" from="-256157283#0" id="veh291_68400" to="480284575" type="veh_passenger"/>
    <trip depart="68662.16" departLane="best" from="235427743#0" id="veh292_68400" to="491628725#0" type="veh_passenger"/>
    <trip depart="68663.06" departLane="best" from="479812143#3" id="veh293_68400" to="479751374#1" type="veh_passenger"/>
    <trip depart="68663.96" departLane="best" from="235436489#0" id="veh294_68400" to="583797089#2" type="veh_passenger"/>
    <trip depart="68664.85" departLane="best" from="-25934395#4" id="veh295_68400" to="100646269#0" type="veh_passenger"/>
    <trip depart="68665.75" departLane="best" from="479812147#0" id="veh296_68400" to="1039133060" type="veh_passenger"/>
    <trip depart="68667.55" departLane="best" from="25931028#4" id="veh298_68400" to="156148419#3" type="veh_passenger"/>
    <trip depart="68668.44" departLane="best" from="489924065" id="veh299_68400" to="1040929341" type="veh_passenger"/>
    <trip depart="68669.34" departLane="best" from="480250296#2" id="veh300_68400" to="1036341350#3" type="veh_passenger"/>
    <trip depart="68670.24" departLane="best" from="1036114082" id="veh301_68400" to="-479621763#9" type="veh_passenger"/>
    <trip depart="68671.14" departLane="best" from="-61163785#3" id="veh302_68400" to="-479621763#5" type="veh_passenger"/>
    <trip depart="68672.04" departLane="best" from="25931033" id="veh303_68400" to="491628725#3" type="veh_passenger"/>
    <trip depart="68672.93" departLane="best" from="-491638583#3" id="veh304_68400" to="100646242#1" type="veh_passenger"/>
    <trip depart="68675.63" departLane="best" from="1036360487#6" id="veh307_68400" to="-475316653#0" type="veh_passenger"/>
    <trip depart="68676.52" departLane="best" from="-622805764#1" id="veh308_68400" to="1032987570#1" type="veh_passenger"/>
    <trip depart="68679.22" departLane="best" from="854040751" id="veh311_68400" to="25931028#5" type="veh_passenger"/>
    <trip depart="68680.12" departLane="best" from="479816723#2" id="veh312_68400" to="-479797258#1" type="veh_passenger"/>
    <trip depart="68681.91" departLane="best" from="658130902" id="veh314_68400" to="26234533#2" type="veh_passenger"/>
    <trip depart="68682.81" departLane="best" from="224737850#2" id="veh315_68400" to="159453472#0" type="veh_passenger"/>
    <trip depart="68683.71" departLane="best" from="-490718877#2" id="veh316_68400" to="-248698662" type="veh_passenger"/>
    <trip depart="68685.5" departLane="best" from="618371797" id="veh318_68400" to="1046628053" type="veh_passenger"/>
    <trip depart="68686.4" departLane="best" from="-255416142#4" id="veh319_68400" to="479621745#1" type="veh_passenger"/>
    <trip depart="68688.2" departLane="best" from="267535712" id="veh321_68400" to="1039133060" type="veh_passenger"/>
    <trip depart="68689.09" departLane="best" from="994962121#3" id="veh322_68400" to="-479621763#11" type="veh_passenger"/>
    <trip depart="68689.99" departLane="best" from="491628725#1" id="veh323_68400" to="379986688#1" type="veh_passenger"/>
    <trip depart="68691.79" departLane="best" from="256157278#0" id="veh325_68400" to="159455875#2" type="veh_passenger"/>
    <trip depart="68692.69" departLane="best" from="166563429#5" id="veh326_68400" to="625413762#1" type="veh_passenger"/>
    <trip depart="68693.58" departLane="best" from="901285521" id="veh327_68400" to="1039133060" type="veh_passenger"/>
    <trip depart="68694.48" departLane="best" from="479621743#1" id="veh328_68400" to="379986768" type="veh_passenger"/>
    <trip depart="68695.38" departLane="best" from="489606084-AddedOnRampEdge" id="veh329_68400" to="765467137" type="veh_passenger"/>
    <trip depart="68696.28" departLane="best" from="-665451328#7" id="veh330_68400" to="-775599627#0" type="veh_passenger"/>
    <trip depart="68697.17" departLane="best" from="479797300#0" id="veh331_68400" to="-480282280" type="veh_passenger"/>
    <trip depart="68698.07" departLane="best" from="-480475790#0" id="veh332_68400" to="-256157278#0" type="veh_passenger"/>
    <trip depart="68698.97" departLane="best" from="-100646234" id="veh333_68400" to="159455875#2" type="veh_passenger"/>