<routes>
    <vType id="veh_passenger" vClass="passenger"/>
    <trip depart="54000" departLane="best" from="479751369#4" id="veh0_54000" to="-159455892#6" type="veh_passenger"/>
    <trip depart="54000.9" departLane="best" from="1036346145" id="veh1_54000" to="100646295#1" type="veh_passenger"/>
    <trip depart="54001.8" departLane="best" from="486825027#0" id="veh2_54000" to="479797313#7" type="veh_passenger"/>
    <trip depart="54002.69" departLane="best" from="665453544" id="veh3_54000" to="-320755659#0" type="veh_passenger"/>
    <trip depart="54004.49" departLane="best" from="100646220#1" id="veh5_54000" to="235424958#4" type="veh_passenger"/>
    <trip depart="54005.39" departLane="best" from="-155033028#1" id="veh6_54000" to="-623891502#0" type="veh_passenger"/>
    <trip depart="54006.28" departLane="best" from="479797258#4" id="veh7_54000" to="25931028#0" type="veh_passenger"/>
    <trip depart="54007.18" departLane="best" from="100646245#3" id="veh8_54000" to="321071861#2" type="veh_passenger"/>
    <trip depart="54008.98" departLane="best" from="1041521602" id="veh10_54000" to="-480276564" type="veh_passenger"/>
    <trip depart="54009.88" departLane="best" from="773876919#5" id="veh11_54000" to="1041187875-AddedOnRampEdge" type="veh_passenger"/>
    <trip depart="54011.67" departLane="best" from="623474397#3" id="veh13_54000" to="321073948" type="veh_passenger"/>
    <trip depart="54012.57" departLane="best" from="61163715#4" id="veh14_54000" to="481854591#1" type="veh_passenger"/>
    <trip depart="54013.47" departLane="best" from="25931033" id="veh15_54000" to="854001005#0" type="veh_passenger"/>
    <trip depart="54015.26" departLane="best" from="622809059#0" id="veh17_54000" to="475316653#4" type="veh_passenger"/>
    <trip depart="54016.16" departLane="best" from="625413783#2" id="veh18_54000" to="320755665" type="veh_passenger"/>
    <trip depart="54019.75" departLane="best" from="-379986746#0" id="veh22_54000" to="1036341357#0" type="veh_passenger"/>
    <trip depart="54021.55" departLane="best" from="1042693362#0" id="veh24_54000" to="-775380332#0" type="veh_passenger"/>
    <trip depart="54022.45" departLane="best" from="1036341360#1" id="veh25_54000" to="743386900" type="veh_passenger"/>
    <trip depart="54023.34" departLane="best" from="479797253#1" id="veh26_54000" to="379986751" type="veh_passenger"/>
    <trip depart="54025.14" departLane="best" from="-480252897#2" id="veh28_54000" to="1042449170" type="veh_passenger"/>
    <trip depart="54026.04" departLane="best" from="901285519#0" id="veh29_54000" to="479621763#4" type="veh_passenger"/>
    <trip depart="54027.83" departLane="best" from="623128861" id="veh31_54000" to="491638585" type="veh_passenger"/>
    <trip depart="54030.53" departLane="best" from="-775380332#5" id="veh34_54000" to="765449928" type="veh_passenger"/>
    <trip depart="54032.32" departLane="best" from="479797277#5" id="veh36_54000" to="1042716326" type="veh_passenger"/>
    <trip depart="54033.22" departLane="best" from="742718528#2" id="veh37_54000" to="166563426#4" type="veh_passenger"/>
    <trip depart="54034.12" departLane="best" from="1036341358#0" id="veh38_54000" to="1036060565" type="veh_passenger"/>
    <trip depart="54035.01" departLane="best" from="26234656#0" id="veh39_54000" to="1036099955" type="veh_passenger"/>
    <trip depart="54035.91" departLane="best" from="321073225#2" id="veh40_54000" to="684128578#0" type="veh_passenger"/>
    <trip depart="54036.81" departLane="best" from="156148402#2" id="veh41_54000" to="100646256#0" type="veh_passenger"/>
    <trip depart="54037.71" departLane="best" from="994962124#6" id="veh42_54000" to="235424974#1" type="veh_passenger"/>
    <trip depart="54039.5" departLane="best" from="-475316653#5" id="veh44_54000" to="479613108#2" type="veh_passenger"/>
    <trip depart="54040.4" departLane="best" from="583797089#1" id="veh45_54000" to="156148413#0" type="veh_passenger"/>
    <trip depart="54041.3" departLane="best" from="-248698662" id="veh46_54000" to="1042676039" type="veh_passenger"/>
    <trip depart="54042.2" departLane="best" from="994962124#3" id="veh47_54000" to="248698674#2" type="veh_passenger"/>
    <trip depart="54043.09" departLane="best" from="854001005#0" id="veh48_54000" to="625413762#3" type="veh_passenger"/>
    <trip depart="54043.99" departLane="best" from="-1036047409#0" id="veh49_54000" to="480284576#2" type="veh_passenger"/>
    <trip depart="54044.89" departLane="best" from="479797341#1-AddedOnRampEdge" id="veh50_54000" to="255416224#2" type="veh_passenger"/>
    <trip depart="54045.79" departLane="best" from="1036341360#0" id="veh51_54000" to="479621763#7" type="veh_passenger"/>
    <trip depart="54046.69" departLane="best" from="-475319370" id="veh52_54000" to="159453447#8" type="veh_passenger"/>
    <trip depart="54047.58" departLane="best" from="178774212#0" id="veh53_54000" to="773159597#3" type="veh_passenger"/>
    <trip depart="54049.38" departLane="best" from="248698668#12" id="veh55_54000" to="-490165001#1" type="veh_passenger"/>
    <trip depart="54051.17" departLane="best" from="1039159932#1" id="veh57_54000" to="479621763#11" type="veh_passenger"/>
    <trip depart="54052.97" departLane="best" from="491462355" id="veh59_54000" to="255416245#1" type="veh_passenger"/>
    <trip depart="54053.87" departLane="best" from="491638583#0" id="veh60_54000" to="255416142#2" type="veh_passenger"/>
    <trip depart="54054.77" departLane="best" from="-100646217#1" id="veh61_54000" to="1040911960" type="veh_passenger"/>
    <trip depart="54059.26" departLane="best" from="-256157283#0" id="veh66_54000" to="216065938#0" type="veh_passenger"/>
    <trip depart="54060.15" departLane="best" from="-248698668#10" id="veh67_54000" to="491628725#1-AddedOffRampEdge" type="veh_passenger"/>
    <trip depart="54061.05" departLane="best" from="491628725#1-AddedOffRampEdge" id="veh68_54000" to="-479797283#1" type="veh_passenger"/>
    <trip depart="54061.95" departLane="best" from="224737854#2" id="veh69_54000" to="25931028#3" type="veh_passenger"/>
    <trip depart="54064.64" departLane="best" from="25931909" id="veh72_54000" to="481854591#1" type="veh_passenger"/>
    <trip depart="54065.54" departLane="best" from="-625413768#3" id="veh73_54000" to="1039159932#1" type="veh_passenger"/>
    <trip depart="54066.44" departLane="best" from="994962124#2" id="veh74_54000" to="479797239#0" type="veh_passenger"/>
    <trip depart="54068.23" departLane="best" from="-479621745#7" id="veh76_54000" to="1032262905#1" type="veh_passenger"/>
    <trip depart="54069.13" departLane="best" from="1041504065" id="veh77_54000" to="321071861#1" type="veh_passenger"/>
    <trip depart="54070.03" departLane="best" from="1032665742" id="veh78_54000" to="100646260#0" type="veh_passenger"/>
    <trip depart="54070.93" departLane="best" from="-248698668#8" id="veh79_54000" to="479621745#7" type="veh_passenger"/>
    <trip depart="54072.72" departLane="best" from="625413768#2" id="veh81_54000" to="-255416245#0" type="veh_passenger"/>
    <trip depart="54074.52" departLane="best" from="-994875416" id="veh83_54000" to="-479797308" type="veh_passenger"/>
    <trip depart="54075.42" departLane="best" from="742727484#1" id="veh84_54000" to="26234533#0" type="veh_passenger"/>
    <trip depart="54076.31" departLane="best" from="224737852#6" id="veh85_54000" to="538068606-AddedOffRampEdge" type="veh_passenger"/>
    <trip depart="54077.21" departLane="best" from="-320758120" id="veh86_54000" to="156148432#0" type="veh_passenger"/>
    <trip depart="54079.01" departLane="best" from="481854588#3" id="veh88_54000" to="479797313#0" type="veh_passenger"/>
    <trip depart="54080.8" departLane="best" from="156148407#0" id="veh90_54000" to="1041235840#1-AddedOffRampEdge" type="veh_passenger"/>
    <trip depart="54081.7" departLane="best" from="625413783#2" id="veh91_54000" to="1036062887" type="veh_passenger"/>
    <trip depart="54082.6" departLane="best" from="-61163715#2" id="veh92_54000" to="159455874#9" type="veh_passenger"/>
    <trip depart="54083.5" departLane="best" from="159453472#0" id="veh93_54000" to="1036341357#1" type="veh_passenger"/>
    <trip depart="54085.29" departLane="best" from="166563429#6" id="veh95_54000" to="625413766#0" type="veh_passenger"/>
    <trip depart="54087.09" departLane="best" from="996026061#1" id="veh97_54000" to="622873931#7" type="veh_passenger"/>
    <trip depart="54087.99" departLane="best" from="854001000#1" id="veh98_54000" to="742727471" type="veh_passenger"/>
    <trip depart="54089.78" departLane="best" from="235427270" id="veh100_54000" to="100646217#3" type="veh_passenger"/>
    <trip depart="54092.47" departLane="best" from="1036341358#1" id="veh103_54000" to="538068606-AddedOffRampEdge" type="veh_passenger"/>
    <trip depart="54093.37" departLane="best" from="178774217#1" id="veh104_54000" to="156148417" type="veh_passenger"/>
    <trip depart="54095.17" departLane="best" from="25934395#5" id="veh106_54000" to="480283416#1" type="veh_passenger"/>
    <trip depart="54096.07" departLane="best" from="-480250296#0" id="veh107_54000" to="1036360487#6" type="veh_passenger"/>
    <trip depart="54096.96" departLane="best" from="854001000#0" id="veh108_54000" to="320758120" type="veh_passenger"/>
    <trip depart="54097.86" departLane="best" from="25931909" id="veh109_54000" to="490192688#5" type="veh_passenger"/>
    <trip depart="54098.76" departLane="best" from="-234517427#4" id="veh110_54000" to="320758139" type="veh_passenger"/>
    <trip depart="54099.66" departLane="best" from="248698670#0" id="veh111_54000" to="623891500#1" type="veh_passenger"/>
    <trip depart="54100.55" departLane="best" from="-480250299#0" id="veh112_54000" to="774852739#1" type="veh_passenger"/>
    <trip depart="54102.35" departLane="best" from="323563821#1" id="veh114_54000" to="479797313#4" type="veh_passenger"/>
    <trip depart="54105.04" departLane="best" from="323563821#0" id="veh117_54000" to="475316658#1" type="veh_passenger"/>
    <trip depart="54105.94" departLane="best" from="159453449#8" id="veh118_54000" to="320758139" type="veh_passenger"/>
    <trip depart="54106.84" departLane="best" from="256157278#1" id="veh119_54000" to="742727484#3" type="veh_passenger"/>
    <trip depart="54107.74" departLane="best" from="-658095569#2" id="veh120_54000" to="480276562" type="veh_passenger"/>
    <trip depart="54108.63" departLane="best" from="1036060565" id="veh121_54000" to="1042716327" type="veh_passenger"/>
    <trip depart="54109.53" departLane="best" from="479797313#7" id="veh122_54000" to="1038266651" type="veh_passenger"/>
    <trip depart="54110.43" departLane="best" from="1040925852" id="veh123_54000" to="490213894-AddedOffRampEdge" type="veh_passenger"/>
    <trip depart="54111.33" departLane="best" from="-248698670#2" id="veh124_54000" to="166563426#3" type="veh_passenger"/>
    <trip depart="54112.23" departLane="best" from="-255416142#1" id="veh125_54000" to="100646208" type="veh_passenger"/>
    <trip depart="54113.12" departLane="best" from="1036341358#1" id="veh126_54000" to="742727484#0" type="veh_passenger"/>
    <trip depart="54114.02" departLane="best" from="1042693361#1" id="veh127_54000" to="-480282281#0" type="veh_passenger"/>
    <trip depart="54114.92" departLane="best" from="622873931#7" id="veh128_54000" to="480250293#0" type="veh_passenger"/>
    <trip depart="54115.82" departLane="best" from="475316653#6" id="veh129_54000" to="854052897#4" type="veh_passenger"/>
    <trip depart="54116.71" departLane="best" from="479797277#2" id="veh130_54000" to="-100646260#1" type="veh_passenger"/>
    <trip depart="54117.61" departLane="best" from="618364867#1" id="veh131_54000" to="1038110939" type="veh_passenger"/>
    <trip depart="54118.51" departLane="best" from="479797310#0" id="veh132_54000" to="765449926#0" type="veh_passenger"/>
    <trip depart="54120.31" departLane="best" from="-475316645#2" id="veh134_54000" to="25931028#5" type="veh_passenger"/>
    <trip depart="54123" departLane="best" from="479621763#12" id="veh137_54000" to="1036099956#3" type="veh_passenger"/>
    <trip depart="54123.9" departLane="best" from="235427743#0" id="veh138_54000" to="696730624" type="veh_passenger"/>
    <trip depart="54124.8" departLane="best" from="623474397#0" id="veh139_54000" to="-379986688#2" type="veh_passenger"/>
    <trip depart="54125.69" departLane="best" from="159453472#4" id="veh140_54000" to="1036341355" type="veh_passenger"/>
    <trip depart="54126.59" departLane="best" from="-100646242#1" id="veh141_54000" to="491632371#2" type="veh_passenger"/>
    <trip depart="54127.49" departLane="best" from="479621774#2" id="veh142_54000" to="1036099953" type="veh_passenger"/>
    <trip depart="54128.39" departLane="best" from="489606090" id="veh143_54000" to="25931028#4" type="veh_passenger"/>
    <trip depart="54129.28" departLane="best" from="159455874#4" id="veh144_54000" to="-100646264#0" type="veh_passenger"/>
    <trip depart="54130.18" departLane="best" from="-255416153" id="veh145_54000" to="665451330#1" type="veh_passenger"/>
    <trip depart="54131.98" departLane="best" from="622873934#0" id="veh147_54000" to="320758130#1" type="veh_passenger"/>
    <trip depart="54132.88" departLane="best" from="-479816722#1" id="veh148_54000" to="-479797258#5" type="veh_passenger"/>
    <trip depart="54133.77" departLane="best" from="1040260533" id="veh149_54000" to="684128578#2" type="veh_passenger"/>
    <trip depart="54134.67" departLane="best" from="583797089#8" id="veh150_54000" to="625413762#3" type="veh_passenger"/>
    <trip depart="54135.57" departLane="best" from="684128578#0" id="veh151_54000" to="-775380332#4" type="veh_passenger"/>
    <trip depart="54137.36" departLane="best" from="491638583#6" id="veh153_54000" to="665451330#2" type="veh_passenger"/>
    <trip depart="54138.26" departLane="best" from="156148419#1" id="veh154_54000" to="475319371#0" type="veh_passenger"/>
    <trip depart="54140.06" departLane="best" from="625418511" id="veh156_54000" to="854040750" type="veh_passenger"/>
    <trip depart="54143.65" departLane="best" from="61163710#13" id="veh160_54000" to="625413783#2" type="veh_passenger"/>
    <trip depart="54145.44" departLane="best" from="538068340#1" id="veh162_54000" to="-479613101#1" type="veh_passenger"/>
    <trip depart="54147.24" departLane="best" from="100646256#1" id="veh164_54000" to="618371794" type="veh_passenger"/>
    <trip depart="54148.14" departLane="best" from="216060954#1" id="veh165_54000" to="1039133060" type="veh_passenger"/>
    <trip depart="54149.04" departLane="best" from="583797089#7" id="veh166_54000" to="1032987570#1" type="veh_passenger"/>
    <trip depart="54149.93" departLane="best" from="-1042698679" id="veh167_54000" to="-622804129#0" type="veh_passenger"/>
    <trip depart="54150.83" departLane="best" from="1041235840#0" id="veh168_54000" to="625413783#3" type="veh_passenger"/>
    <trip depart="54151.73" departLane="best" from="479751865#1" id="veh169_54000" to="1042728028#1" type="veh_passenger"/>
    <trip depart="54152.63" departLane="best" from="854052892-AddedOffRampEdge" id="veh170_54000" to="255416223#1" type="veh_passenger"/>
    <trip depart="54153.52" departLane="best" from="764267604" id="veh171_54000" to="-479621752#0" type="veh_passenger"/>
    <trip depart="54154.42" departLane="best" from="854001002#1" id="veh172_54000" to="-490165001#1" type="veh_passenger"/>
    <trip depart="54155.32" departLane="best" from="775122579#1" id="veh173_54000" to="1036114082" type="veh_passenger"/>
    <trip depart="54156.22" departLane="best" from="-475316653#0" id="veh174_54000" to="159453447#8" type="veh_passenger"/>
    <trip depart="54157.12" departLane="best" from="481854585" id="veh175_54000" to="1039159937" type="veh_passenger"/>
    <trip depart="54158.91" departLane="best" from="123423117#1" id="veh177_54000" to="320755661#1" type="veh_passenger"/>
    <trip depart="54159.81" departLane="best" from="1036338535" id="veh178_54000" to="480250299#1" type="veh_passenger"/>
    <trip depart="54160.71" departLane="best" from="-100646220#2" id="veh179_54000" to="742727470" type="veh_passenger"/>
    <trip depart="54162.5" departLane="best" from="489606090" id="veh181_54000" to="479797310#7" type="veh_passenger"/>
    <trip depart="54163.4" departLane="best" from="1042449169#1" id="veh182_54000" to="-255416229#2" type="veh_passenger"/>
    <trip depart="54165.2" departLane="best" from="1040882903" id="veh184_54000" to="623138417" type="veh_passenger"/>
    <trip depart="54166.09" departLane="best" from="480284576#1" id="veh185_54000" to="1038324580" type="veh_passenger"/>
    <trip depart="54166.99" departLane="best" from="1040591005" id="veh186_54000" to="145126347" type="veh_passenger"/>
    <trip depart="54167.89" departLane="best" from="156148404#3" id="veh187_54000" to="1036360487#5" type="veh_passenger"/>
    <trip depart="54168.79" departLane="best" from="-479621763#5" id="veh188_54000" to="156148404#2" type="veh_passenger"/>
    <trip depart="54169.69" departLane="best" from="764267605" id="veh189_54000" to="479797318#0" type="veh_passenger"/>
    <trip depart="54171.48" departLane="best" from="1039159935" id="veh191_54000" to="25931028#2" type="veh_passenger"/>
    <trip depart="54172.38" departLane="best" from="-100646217#0" id="veh192_54000" to="1036342983" type="veh_passenger"/>
    <trip depart="54173.28" departLane="best" from="159455874#8" id="veh193_54000" to="320758122#1" type="veh_passenger"/>
    <trip depart="54175.07" departLane="best" from="166563429#4" id="veh195_54000" to="100646217#3" type="veh_passenger"/>
    <trip depart="54175.97" departLane="best" from="224737854#0" id="veh196_54000" to="684135634#2" type="veh_passenger"/>
    <trip depart="54176.87" departLane="best" from="583797089#8" id="veh197_54000" to="-483726628#0" type="veh_passenger"/>
    <trip depart="54178.66" departLane="best" from="479621758#4" id="veh199_54000" to="1041187875" type="veh_passenger"/>
    <trip depart="54180.46" departLane="best" from="479797318#4" id="veh201_54000" to="1032262905#1" type="veh_passenger"/>
    <trip depart="54181.36" departLane="best" from="-623891515#1" id="veh202_54000" to="-159455892#4" type="veh_passenger"/>
    <trip depart="54183.15" departLane="best" from="623474399#3" id="veh204_54000" to="-255416251#2" type="veh_passenger"/>
    <trip depart="54184.05" departLane="best" from="159453447#12" id="veh205_54000" to="479621745#2" type="veh_passenger"/>
    <trip depart="54184.95" departLane="best" from="-622873929#0" id="veh206_54000" to="479816723#0" type="veh_passenger"/>
    <trip depart="54185.85" departLane="best" from="245763347#0" id="veh207_54000" to="1036052086#2" type="veh_passenger"/>
    <trip depart="54186.74" departLane="best" from="479797279" id="veh208_54000" to="-100646248#2" type="veh_passenger"/>
    <trip depart="54188.54" departLane="best" from="-475316645#2" id="veh210_54000" to="156148419#2" type="veh_passenger"/>
    <trip depart="54189.44" departLane="best" from="-483796488#0" id="veh211_54000" to="773876919#3" type="veh_passenger"/>
    <trip depart="54192.13" departLane="best" from="178774219#2" id="veh214_54000" to="61163710#1" type="veh_passenger"/>
    <trip depart="54193.93" departLane="best" from="323563821#2" id="veh216_54000" to="773159596#1" type="veh_passenger"/>
    <trip depart="54194.82" departLane="best" from="665453544" id="veh217_54000" to="47070283#3" type="veh_passenger"/>
    <trip depart="54195.72" departLane="best" from="480284575" id="veh218_54000" to="235424958#4" type="veh_passenger"/>
    <trip depart="54196.62" departLane="best" from="622873931#0" id="veh219_54000" to="25931028#2" type="veh_passenger"/>
    <trip depart="54197.52" departLane="best" from="665453553" id="veh220_54000" to="489629072#3" type="veh_passenger"/>
    <trip depart="54199.31" departLane="best" from="1036079534" id="veh222_54000" to="479621758#3" type="veh_passenger"/>
    <trip depart="54202.01" departLane="best" from="-255416209#0" id="veh225_54000" to="1036342983" type="veh_passenger"/>
    <trip depart="54203.8" departLane="best" from="25931909" id="veh227_54000" to="-479797345#1" type="veh_passenger"/>
    <trip depart="54206.5" departLane="best" from="156148419#4" id="veh230_54000" to="256157279" type="veh_passenger"/>
    <trip depart="54209.19" departLane="best" from="321073225#1" id="veh233_54000" to="479816717#0" type="veh_passenger"/>
    <trip depart="54210.09" departLane="best" from="625397297" id="veh234_54000" to="491628727#0" type="veh_passenger"/>
    <trip depart="54210.98" departLane="best" from="1042716324" id="veh235_54000" to="-100646252#0" type="veh_passenger"/>
    <trip depart="54211.88" departLane="best" from="1041544550#0" id="veh236_54000" to="490216931#1" type="veh_passenger"/>
    <trip depart="54212.78" departLane="best" from="623891513" id="veh237_54000" to="773159597#3" type="veh_passenger"/>
    <trip depart="54213.68" departLane="best" from="159453449#7" id="veh238_54000" to="490192688#3-AddedOnRampEdge" type="veh_passenger"/>
    <trip depart="54214.58" departLane="best" from="25931950-AddedOffRampEdge" id="veh239_54000" to="321073948" type="veh_passenger"/>
    <trip depart="54216.37" departLane="best" from="1041504064" id="veh241_54000" to="479797321" type="veh_passenger"/>
    <trip depart="54218.17" departLane="best" from="224737849#3" id="veh243_54000" to="-479797258#6" type="veh_passenger"/>
    <trip depart="54219.96" departLane="best" from="156148397#3" id="veh245_54000" to="25934381#0" type="veh_passenger"/>
    <trip depart="54220.86" departLane="best" from="-156148407#1" id="veh246_54000" to="479751358#0" type="veh_passenger"/>
    <trip depart="54221.76" departLane="best" from="-479797279" id="veh247_54000" to="166563429#5" type="veh_passenger"/>
    <trip depart="54222.66" departLane="best" from="-216060954#0" id="veh248_54000" to="1042449170" type="veh_passenger"/>
    <trip depart="54223.55" departLane="best" from="490718877#0" id="veh249_54000" to="1042449170" type="veh_passenger"/>
    <trip depart="54225.35" departLane="best" from="1036313338" id="veh251_54000" to="-25934385#0" type="veh_passenger"/>
    <trip depart="54226.25" departLane="best" from="-1039220886" id="veh252_54000" to="255416245#1" type="veh_passenger"/>
    <trip depart="54227.15" departLane="best" from="479797258#5" id="veh253_54000" to="538068339#5" type="veh_passenger"/>
    <trip depart="54228.04" departLane="best" from="479797271" id="veh254_54000" to="490216934#0" type="veh_passenger"/>
    <trip depart="54228.94" departLane="best" from="773159597#1" id="veh255_54000" to="-623891512" type="veh_passenger"/>
    <trip depart="54230.74" departLane="best" from="-479621763#11" id="veh257_54000" to="479797310#2" type="veh_passenger"/>
    <trip depart="54231.63" departLane="best" from="267535712" id="veh258_54000" to="100646248#1" type="veh_passenger"/>
    <trip depart="54232.53" departLane="best" from="480250287#2" id="veh259_54000" to="491628727#1" type="veh_passenger"/>
    <trip depart="54233.43" departLane="best" from="-480284570" id="veh260_54000" to="379986688#5" type="veh_passenger"/>
    <trip depart="54234.33" departLane="best" from="490165001#0" id="veh261_54000" to="-479621751#0" type="veh_passenger"/>
    <trip depart="54236.12" departLane="best" from="-475316652#3" id="veh263_54000" to="-159457890#2" type="veh_passenger"/>
    <trip depart="54237.02" departLane="best" from="1040882902#0" id="veh264_54000" to="479797318#0" type="veh_passenger"/>
    <trip depart="54237.92" departLane="best" from="774852739#0" id="veh265_54000" to="1042716327" type="veh_passenger"/>
    <trip depart="54239.71" departLane="best" from="479812143#3" id="veh267_54000" to="479613108#1" type="veh_passenger"/>
    <trip depart="54241.51" departLane="best" from="623891500#1" id="veh269_54000" to="321073251" type="veh_passenger"/>
    <trip depart="54242.41" departLane="best" from="491638590#0" id="veh270_54000" to="1041521601" type="veh_passenger"/>
    <trip depart="54243.31" departLane="best" from="159455874#5" id="veh271_54000" to="1042334799" type="veh_passenger"/>
    <trip depart="54244.2" departLane="best" from="248698674#2" id="veh272_54000" to="1041286369" type="veh_passenger"/>
    <trip depart="54246" departLane="best" from="-475316645#0" id="veh274_54000" to="774852739#1" type="veh_passenger"/>
    <trip depart="54246.9" departLane="best" from="479621763#6" id="veh275_54000" to="622804124#1" type="veh_passenger"/>
    <trip depart="54248.69" departLane="best" from="483726628#1" id="veh277_54000" to="775380332#4" type="veh_passenger"/>
    <trip depart="54249.59" departLane="best" from="1036341364#0" id="veh278_54000" to="61163785#3" type="veh_passenger"/>
    <trip depart="54250.49" departLane="best" from="25931907" id="veh279_54000" to="216060954#3" type="veh_passenger"/>
    <trip depart="54251.39" departLane="best" from="159455892#3" id="veh280_54000" to="481854596#2" type="veh_passenger"/>
    <trip depart="54252.28" departLane="best" from="1036341362#1" id="veh281_54000" to="623474399#2" type="veh_passenger"/>
    <trip depart="54253.18" departLane="best" from="622873931#0" id="veh282_54000" to="-320755658#2" type="veh_passenger"/>
    <trip depart="54254.08" departLane="best" from="665451328#4" id="veh283_54000" to="1036052086#2" type="veh_passenger"/>
    <trip depart="54254.98" departLane="best" from="216065940#2" id="veh284_54000" to="390383583#0" type="veh_passenger"/>
    <trip depart="54257.67" departLane="best" from="-856908280" id="veh287_54000" to="584750383#1" type="veh_passenger"/>
    <trip depart="54259.47" departLane="best" from="480250295#0" id="veh289_54000" to="1036341355" type="veh_passenger"/>
    <trip depart="54261.26" departLane="best" from="-256157283#0" id="veh291_54000" to="480284575" type="veh_passenger"/>
    <trip depart="54262.16" departLane="best" from="235427743#0" id="veh292_54000" to="491628725#0" type="veh_passenger"/>
    <trip depart="54263.06" departLane="best" from="479812143#3" id="veh293_54000" to="479751374#1" type="veh_passenger"/>
    <trip depart="54263.96" departLane="best" from="235436489#0" id="veh294_54000" to="583797089#2" type="veh_passenger"/>
    <trip depart="54264.85" departLane="best" from="-25934395#4" id="veh295_54000" to="100646269#0" type="veh_passenger"/>
    <trip depart="54265.75" departLane="best" from="479812147#0" id="veh296_54000" to="1039133060" type="veh_passenger"/>
    <trip depart="54267.55" departLane="best" from="25931028#4" id="veh298_54000" to="156148419#3" type="veh_passenger"/>
    <trip depart="54268.44" departLane="best" from="489924065" id="veh299_54000" to="1040929341" type="veh_passenger"/>
    <trip depart="54269.34" departLane="best" from="480250296#2" id="veh300_54000" to="1036341350#3" type="veh_passenger"/>
    <trip depart="54270.24" departLane="best" from="1036114082" id="veh301_54000" to="-479621763#9" type="veh_passenger"/>
    <trip depart="54271.14" departLane="best" from="-61163785#3" id="veh302_54000" to="-479621763#5" type="veh_passenger"/>
    <trip depart="54272.04" departLane="best" from="25931033" id="veh303_54000" to="491628725#3" type="veh_passenger"/>
    <trip depart="54272.93" departLane="best" from="-491638583#3" id="veh304_54000" to="100646242#1" type="veh_passenger"/>
    <trip depart="54275.63" departLane="best" from="1036360487#6" id="veh307_54000" to="-475316653#0" type="veh_passenger"/>
    <trip depart="54276.52" departLane="best" from="-622805764#1" id="veh308_54000" to="1032987570#1" type="veh_passenger"/>
    <trip depart="54279.22" departLane="best" from="854040751" id="veh311_54000" to="25931028#5" type="veh_passenger"/>
    <trip depart="54280.12" departLane="best" from="479816723#2" id="veh312_54000" to="-479797258#1" type="veh_passenger"/>
    <trip depart="54281.91" departLane="best" from="658130902" id="veh314_54000" to="26234533#2" type="veh_passenger"/>
    <trip depart="54282.81" departLane="best" from="224737850#2" id="veh315_54000" to="159453472#0" type="veh_passenger"/>
    <trip depart="54283.71" departLane="best" from="-490718877#2" id="veh316_54000" to="-248698662" type="veh_passenger"/>
    <trip depart="54285.5" departLane="best" from="618371797" id="veh318_54000" to="1046628053" type="veh_passenger"/>
    <trip depart="54286.4" departLane="best" from="-255416142#4" id="veh319_54000" to="479621745#1" type="veh_passenger"/>
    <trip depart="54288.2" departLane="best" from="267535712" id="veh321_54000" to="1039133060" type="veh_passenger"/>
    <trip depart="54289.09" departLane="best" from="994962121#3" id="veh322_54000" to="-479621763#11" type="veh_passenger"/>
    <trip depart="54289.99" departLane="best" from="491628725#1" id="veh323_54000" to="379986688#1" type="veh_passenger"/>
    <trip depart="54291.79" departLane="best" from="256157278#0" id="veh325_54000" to="159455875#2" type="veh_passenger"/>
    <trip depart="54292.69" departLane="best" from="166563429#5" id="veh326_54000" to="625413762#1" type="veh_passenger"/>
    <trip depart="54293.58" departLane="best" from="901285521" id="veh327_54000" to="1039133060" type="veh_passenger"/>
    <trip depart="54294.48" departLane="best" from="479621743#1" id="veh328_54000" to="379986768" type="veh_passenger"/>
    <trip depart="54295.38" departLane="best" from="489606084-AddedOnRampEdge" id="veh329_54000" to="765467137" type="veh_passenger"/>
    <trip depart="54296.28" departLane="best" from="-665451328#7" id="veh330_54000" to="-775599627#0" type="veh_passenger"/>
    <trip depart="54297.17" departLane="best" from="479797300#0" id="veh331_54000" to="-480282280" type="veh_passenger"/>
    <trip depart="54298.07" departLane="best" from="-480475790#0" id="veh332_54000" to="-256157278#0" type="veh_passenger"/>
    <trip depart="54298.97" departLane="best" from="-100646234" id="veh333_54000" to="159455875#2" type="veh_passenger"/>