<routes>
    <vType id="veh_passenger" vClass="passenger"/>
    <trip depart="36000" departLane="best" from="479751369#4" id="veh0_36000" to="-159455892#6" type="veh_passenger"/>
    <trip depart="36000.9" departLane="best" from="1036346145" id="veh1_36000" to="100646295#1" type="veh_passenger"/>
    <trip depart="36001.8" departLane="best" from="486825027#0" id="veh2_36000" to="479797313#7" type="veh_passenger"/>
    <trip depart="36002.69" departLane="best" from="665453544" id="veh3_36000" to="-320755659#0" type="veh_passenger"/>
    <trip depart="36004.49" departLane="best" from="100646220#1" id="veh5_36000" to="235424958#4" type="veh_passenger"/>
    <trip depart="36005.39" departLane="best" from="-155033028#1" id="veh6_36000" to="-623891502#0" type="veh_passenger"/>
    <trip depart="36006.28" departLane="best" from="479797258#4" id="veh7_36000" to="25931028#0" type="veh_passenger"/>
    <trip depart="36007.18" departLane="best" from="100646245#3" id="veh8_36000" to="321071861#2" type="veh_passenger"/>
    <trip depart="36008.98" departLane="best" from="1041521602" id="veh10_36000" to="-480276564" type="veh_passenger"/>
    <trip depart="36009.88" departLane="best" from="773876919#5" id="veh11_36000" to="1041187875-AddedOnRampEdge" type="veh_passenger"/>
    <trip depart="36011.67" departLane="best" from="623474397#3" id="veh13_36000" to="321073948" type="veh_passenger"/>
    <trip depart="36012.57" departLane="best" from="61163715#4" id="veh14_36000" to="481854591#1" type="veh_passenger"/>
    <trip depart="36013.47" departLane="best" from="25931033" id="veh15_36000" to="854001005#0" type="veh_passenger"/>
    <trip depart="36015.26" departLane="best" from="622809059#0" id="veh17_36000" to="475316653#4" type="veh_passenger"/>
    <trip depart="36016.16" departLane="best" from="625413783#2" id="veh18_36000" to="320755665" type="veh_passenger"/>
    <trip depart="36019.75" departLane="best" from="-379986746#0" id="veh22_36000" to="1036341357#0" type="veh_passenger"/>
    <trip depart="36021.55" departLane="best" from="1042693362#0" id="veh24_36000" to="-775380332#0" type="veh_passenger"/>
    <trip depart="36022.45" departLane="best" from="1036341360#1" id="veh25_36000" to="743386900" type="veh_passenger"/>
    <trip depart="36023.34" departLane="best" from="479797253#1" id="veh26_36000" to="379986751" type="veh_passenger"/>
    <trip depart="36025.14" departLane="best" from="-480252897#2" id="veh28_36000" to="1042449170" type="veh_passenger"/>
    <trip depart="36026.04" departLane="best" from="901285519#0" id="veh29_36000" to="479621763#4" type="veh_passenger"/>
    <trip depart="36027.83" departLane="best" from="623128861" id="veh31_36000" to="491638585" type="veh_passenger"/>
    <trip depart="36030.53" departLane="best" from="-775380332#5" id="veh34_36000" to="765449928" type="veh_passenger"/>
    <trip depart="36032.32" departLane="best" from="479797277#5" id="veh36_36000" to="1042716326" type="veh_passenger"/>
    <trip depart="36033.22" departLane="best" from="742718528#2" id="veh37_36000" to="166563426#4" type="veh_passenger"/>
    <trip depart="36034.12" departLane="best" from="1036341358#0" id="veh38_36000" to="1036060565" type="veh_passenger"/>
    <trip depart="36035.01" departLane="best" from="26234656#0" id="veh39_36000" to="1036099955" type="veh_passenger"/>
    <trip depart="36035.91" departLane="best" from="321073225#2" id="veh40_36000" to="684128578#0" type="veh_passenger"/>
    <trip depart="36036.81" departLane="best" from="156148402#2" id="veh41_36000" to="100646256#0" type="veh_passenger"/>
    <trip depart="36037.71" departLane="best" from="994962124#6" id="veh42_36000" to="235424974#1" type="veh_passenger"/>
    <trip depart="36039.5" departLane="best" from="-475316653#5" id="veh44_36000" to="479613108#2" type="veh_passenger"/>
    <trip depart="36040.4" departLane="best" from="583797089#1" id="veh45_36000" to="156148413#0" type="veh_passenger"/>
    <trip depart="36041.3" departLane="best" from="-248698662" id="veh46_36000" to="1042676039" type="veh_passenger"/>
    <trip depart="36042.2" departLane="best" from="994962124#3" id="veh47_36000" to="248698674#2" type="veh_passenger"/>
    <trip depart="36043.09" departLane="best" from="854001005#0" id="veh48_36000" to="625413762#3" type="veh_passenger"/>
    <trip depart="36043.99" departLane="best" from="-1036047409#0" id="veh49_36000" to="480284576#2" type="veh_passenger"/>
    <trip depart="36044.89" departLane="best" from="479797341#1-AddedOnRampEdge" id="veh50_36000" to="255416224#2" type="veh_passenger"/>
    <trip depart="36045.79" departLane="best" from="1036341360#0" id="veh51_36000" to="479621763#7" type="veh_passenger"/>
    <trip depart="36046.69" departLane="best" from="-475319370" id="veh52_36000" to="159453447#8" type="veh_passenger"/>
    <trip depart="36047.58" departLane="best" from="178774212#0" id="veh53_36000" to="773159597#3" type="veh_passenger"/>
    <trip depart="36049.38" departLane="best" from="248698668#12" id="veh55_36000" to="-490165001#1" type="veh_passenger"/>
    <trip depart="36051.17" departLane="best" from="1039159932#1" id="veh57_36000" to="479621763#11" type="veh_passenger"/>
    <trip depart="36052.97" departLane="best" from="491462355" id="veh59_36000" to="255416245#1" type="veh_passenger"/>
    <trip depart="36053.87" departLane="best" from="491638583#0" id="veh60_36000" to="255416142#2" type="veh_passenger"/>
    <trip depart="36054.77" departLane="best" from="-100646217#1" id="veh61_36000" to="1040911960" type="veh_passenger"/>
    <trip depart="36059.26" departLane="best" from="-256157283#0" id="veh66_36000" to="216065938#0" type="veh_passenger"/>
    <trip depart="36060.15" departLane="best" from="-248698668#10" id="veh67_36000" to="491628725#1-AddedOffRampEdge" type="veh_passenger"/>
    <trip depart="36061.05" departLane="best" from="491628725#1-AddedOffRampEdge" id="veh68_36000" to="-479797283#1" type="veh_passenger"/>
    <trip depart="36061.95" departLane="best" from="224737854#2" id="veh69_36000" to="25931028#3" type="veh_passenger"/>
    <trip depart="36064.64" departLane="best" from="25931909" id="veh72_36000" to="481854591#1" type="veh_passenger"/>
    <trip depart="36065.54" departLane="best" from="-625413768#3" id="veh73_36000" to="1039159932#1" type="veh_passenger"/>
    <trip depart="36066.44" departLane="best" from="994962124#2" id="veh74_36000" to="479797239#0" type="veh_passenger"/>
    <trip depart="36068.23" departLane="best" from="-479621745#7" id="veh76_36000" to="1032262905#1" type="veh_passenger"/>
    <trip depart="36069.13" departLane="best" from="1041504065" id="veh77_36000" to="321071861#1" type="veh_passenger"/>
    <trip depart="36070.03" departLane="best" from="1032665742" id="veh78_36000" to="100646260#0" type="veh_passenger"/>
    <trip depart="36070.93" departLane="best" from="-248698668#8" id="veh79_36000" to="479621745#7" type="veh_passenger"/>
    <trip depart="36072.72" departLane="best" from="625413768#2" id="veh81_36000" to="-255416245#0" type="veh_passenger"/>
    <trip depart="36074.52" departLane="best" from="-994875416" id="veh83_36000" to="-479797308" type="veh_passenger"/>
    <trip depart="36075.42" departLane="best" from="742727484#1" id="veh84_36000" to="26234533#0" type="veh_passenger"/>
    <trip depart="36076.31" departLane="best" from="224737852#6" id="veh85_36000" to="538068606-AddedOffRampEdge" type="veh_passenger"/>
    <trip depart="36077.21" departLane="best" from="-320758120" id="veh86_36000" to="156148432#0" type="veh_passenger"/>
    <trip depart="36079.01" departLane="best" from="481854588#3" id="veh88_36000" to="479797313#0" type="veh_passenger"/>
    <trip depart="36080.8" departLane="best" from="156148407#0" id="veh90_36000" to="1041235840#1-AddedOffRampEdge" type="veh_passenger"/>
    <trip depart="36081.7" departLane="best" from="625413783#2" id="veh91_36000" to="1036062887" type="veh_passenger"/>
    <trip depart="36082.6" departLane="best" from="-61163715#2" id="veh92_36000" to="159455874#9" type="veh_passenger"/>
    <trip depart="36083.5" departLane="best" from="159453472#0" id="veh93_36000" to="1036341357#1" type="veh_passenger"/>
    <trip depart="36085.29" departLane="best" from="166563429#6" id="veh95_36000" to="625413766#0" type="veh_passenger"/>
    <trip depart="36087.09" departLane="best" from="996026061#1" id="veh97_36000" to="622873931#7" type="veh_passenger"/>
    <trip depart="36087.99" departLane="best" from="854001000#1" id="veh98_36000" to="742727471" type="veh_passenger"/>
    <trip depart="36089.78" departLane="best" from="235427270" id="veh100_36000" to="100646217#3" type="veh_passenger"/>
    <trip depart="36092.47" departLane="best" from="1036341358#1" id="veh103_36000" to="538068606-AddedOffRampEdge" type="veh_passenger"/>
    <trip depart="36093.37" departLane="best" from="178774217#1" id="veh104_36000" to="156148417" type="veh_passenger"/>
    <trip depart="36095.17" departLane="best" from="25934395#5" id="veh106_36000" to="480283416#1" type="veh_passenger"/>
    <trip depart="36096.07" departLane="best" from="-480250296#0" id="veh107_36000" to="1036360487#6" type="veh_passenger"/>
    <trip depart="36096.96" departLane="best" from="854001000#0" id="veh108_36000" to="320758120" type="veh_passenger"/>
    <trip depart="36097.86" departLane="best" from="25931909" id="veh109_36000" to="490192688#5" type="veh_passenger"/>
    <trip depart="36098.76" departLane="best" from="-234517427#4" id="veh110_36000" to="320758139" type="veh_passenger"/>
    <trip depart="36099.66" departLane="best" from="248698670#0" id="veh111_36000" to="623891500#1" type="veh_passenger"/>
    <trip depart="36100.55" departLane="best" from="-480250299#0" id="veh112_36000" to="774852739#1" type="veh_passenger"/>
    <trip depart="36102.35" departLane="best" from="323563821#1" id="veh114_36000" to="479797313#4" type="veh_passenger"/>
    <trip depart="36105.04" departLane="best" from="323563821#0" id="veh117_36000" to="475316658#1" type="veh_passenger"/>
    <trip depart="36105.94" departLane="best" from="159453449#8" id="veh118_36000" to="320758139" type="veh_passenger"/>
    <trip depart="36106.84" departLane="best" from="256157278#1" id="veh119_36000" to="742727484#3" type="veh_passenger"/>
    <trip depart="36107.74" departLane="best" from="-658095569#2" id="veh120_36000" to="480276562" type="veh_passenger"/>
    <trip depart="36108.63" departLane="best" from="1036060565" id="veh121_36000" to="1042716327" type="veh_passenger"/>
    <trip depart="36109.53" departLane="best" from="479797313#7" id="veh122_36000" to="1038266651" type="veh_passenger"/>
    <trip depart="36110.43" departLane="best" from="1040925852" id="veh123_36000" to="490213894-AddedOffRampEdge" type="veh_passenger"/>
    <trip depart="36111.33" departLane="best" from="-248698670#2" id="veh124_36000" to="166563426#3" type="veh_passenger"/>
    <trip depart="36112.23" departLane="best" from="-255416142#1" id="veh125_36000" to="100646208" type="veh_passenger"/>
    <trip depart="36113.12" departLane="best" from="1036341358#1" id="veh126_36000" to="742727484#0" type="veh_passenger"/>
    <trip depart="36114.02" departLane="best" from="1042693361#1" id="veh127_36000" to="-480282281#0" type="veh_passenger"/>
    <trip depart="36114.92" departLane="best" from="622873931#7" id="veh128_36000" to="480250293#0" type="veh_passenger"/>
    <trip depart="36115.82" departLane="best" from="475316653#6" id="veh129_36000" to="854052897#4" type="veh_passenger"/>
    <trip depart="36116.71" departLane="best" from="479797277#2" id="veh130_36000" to="-100646260#1" type="veh_passenger"/>
    <trip depart="36117.61" departLane="best" from="618364867#1" id="veh131_36000" to="1038110939" type="veh_passenger"/>
    <trip depart="36118.51" departLane="best" from="479797310#0" id="veh132_36000" to="765449926#0" type="veh_passenger"/>
    <trip depart="36120.31" departLane="best" from="-475316645#2" id="veh134_36000" to="25931028#5" type="veh_passenger"/>
    <trip depart="36123" departLane="best" from="479621763#12" id="veh137_36000" to="1036099956#3" type="veh_passenger"/>
    <trip depart="36123.9" departLane="best" from="235427743#0" id="veh138_36000" to="696730624" type="veh_passenger"/>
    <trip depart="36124.8" departLane="best" from="623474397#0" id="veh139_36000" to="-379986688#2" type="veh_passenger"/>
    <trip depart="36125.69" departLane="best" from="159453472#4" id="veh140_36000" to="1036341355" type="veh_passenger"/>
    <trip depart="36126.59" departLane="best" from="-100646242#1" id="veh141_36000" to="491632371#2" type="veh_passenger"/>
    <trip depart="36127.49" departLane="best" from="479621774#2" id="veh142_36000" to="1036099953" type="veh_passenger"/>
    <trip depart="36128.39" departLane="best" from="489606090" id="veh143_36000" to="25931028#4" type="veh_passenger"/>
    <trip depart="36129.28" departLane="best" from="159455874#4" id="veh144_36000" to="-100646264#0" type="veh_passenger"/>
    <trip depart="36130.18" departLane="best" from="-255416153" id="veh145_36000" to="665451330#1" type="veh_passenger"/>
    <trip depart="36131.98" departLane="best" from="622873934#0" id="veh147_36000" to="320758130#1" type="veh_passenger"/>
    <trip depart="36132.88" departLane="best" from="-479816722#1" id="veh148_36000" to="-479797258#5" type="veh_passenger"/>
    <trip depart="36133.77" departLane="best" from="1040260533" id="veh149_36000" to="684128578#2" type="veh_passenger"/>
    <trip depart="36134.67" departLane="best" from="583797089#8" id="veh150_36000" to="625413762#3" type="veh_passenger"/>
    <trip depart="36135.57" departLane="best" from="684128578#0" id="veh151_36000" to="-775380332#4" type="veh_passenger"/>
    <trip depart="36137.36" departLane="best" from="491638583#6" id="veh153_36000" to="665451330#2" type="veh_passenger"/>
    <trip depart="36138.26" departLane="best" from="156148419#1" id="veh154_36000" to="475319371#0" type="veh_passenger"/>
    <trip depart="36140.06" departLane="best" from="625418511" id="veh156_36000" to="854040750" type="veh_passenger"/>
    <trip depart="36143.65" departLane="best" from="61163710#13" id="veh160_36000" to="625413783#2" type="veh_passenger"/>
    <trip depart="36145.44" departLane="best" from="538068340#1" id="veh162_36000" to="-479613101#1" type="veh_passenger"/>
    <trip depart="36147.24" departLane="best" from="100646256#1" id="veh164_36000" to="618371794" type="veh_passenger"/>
    <trip depart="36148.14" departLane="best" from="216060954#1" id="veh165_36000" to="1039133060" type="veh_passenger"/>
    <trip depart="36149.04" departLane="best" from="583797089#7" id="veh166_36000" to="1032987570#1" type="veh_passenger"/>
    <trip depart="36149.93" departLane="best" from="-1042698679" id="veh167_36000" to="-622804129#0" type="veh_passenger"/>
    <trip depart="36150.83" departLane="best" from="1041235840#0" id="veh168_36000" to="625413783#3" type="veh_passenger"/>
    <trip depart="36151.73" departLane="best" from="479751865#1" id="veh169_36000" to="1042728028#1" type="veh_passenger"/>
    <trip depart="36152.63" departLane="best" from="854052892-AddedOffRampEdge" id="veh170_36000" to="255416223#1" type="veh_passenger"/>
    <trip depart="36153.52" departLane="best" from="764267604" id="veh171_36000" to="-479621752#0" type="veh_passenger"/>
    <trip depart="36154.42" departLane="best" from="854001002#1" id="veh172_36000" to="-490165001#1" type="veh_passenger"/>
    <trip depart="36155.32" departLane="best" from="775122579#1" id="veh173_36000" to="1036114082" type="veh_passenger"/>
    <trip depart="36156.22" departLane="best" from="-475316653#0" id="veh174_36000" to="159453447#8" type="veh_passenger"/>
    <trip depart="36157.12" departLane="best" from="481854585" id="veh175_36000" to="1039159937" type="veh_passenger"/>
    <trip depart="36158.91" departLane="best" from="123423117#1" id="veh177_36000" to="320755661#1" type="veh_passenger"/>
    <trip depart="36159.81" departLane="best" from="1036338535" id="veh178_36000" to="480250299#1" type="veh_passenger"/>
    <trip depart="36160.71" departLane="best" from="-100646220#2" id="veh179_36000" to="742727470" type="veh_passenger"/>
    <trip depart="36162.5" departLane="best" from="489606090" id="veh181_36000" to="479797310#7" type="veh_passenger"/>
    <trip depart="36163.4" departLane="best" from="1042449169#1" id="veh182_36000" to="-255416229#2" type="veh_passenger"/>
    <trip depart="36165.2" departLane="best" from="1040882903" id="veh184_36000" to="623138417" type="veh_passenger"/>
    <trip depart="36166.09" departLane="best" from="480284576#1" id="veh185_36000" to="1038324580" type="veh_passenger"/>
    <trip depart="36166.99" departLane="best" from="1040591005" id="veh186_36000" to="145126347" type="veh_passenger"/>
    <trip depart="36167.89" departLane="best" from="156148404#3" id="veh187_36000" to="1036360487#5" type="veh_passenger"/>
    <trip depart="36168.79" departLane="best" from="-479621763#5" id="veh188_36000" to="156148404#2" type="veh_passenger"/>
    <trip depart="36169.69" departLane="best" from="764267605" id="veh189_36000" to="479797318#0" type="veh_passenger"/>
    <trip depart="36171.48" departLane="best" from="1039159935" id="veh191_36000" to="25931028#2" type="veh_passenger"/>
    <trip depart="36172.38" departLane="best" from="-100646217#0" id="veh192_36000" to="1036342983" type="veh_passenger"/>
    <trip depart="36173.28" departLane="best" from="159455874#8" id="veh193_36000" to="320758122#1" type="veh_passenger"/>
    <trip depart="36175.07" departLane="best" from="166563429#4" id="veh195_36000" to="100646217#3" type="veh_passenger"/>
    <trip depart="36175.97" departLane="best" from="224737854#0" id="veh196_36000" to="684135634#2" type="veh_passenger"/>
    <trip depart="36176.87" departLane="best" from="583797089#8" id="veh197_36000" to="-483726628#0" type="veh_passenger"/>
    <trip depart="36178.66" departLane="best" from="479621758#4" id="veh199_36000" to="1041187875" type="veh_passenger"/>
    <trip depart="36180.46" departLane="best" from="479797318#4" id="veh201_36000" to="1032262905#1" type="veh_passenger"/>
    <trip depart="36181.36" departLane="best" from="-623891515#1" id="veh202_36000" to="-159455892#4" type="veh_passenger"/>
    <trip depart="36183.15" departLane="best" from="623474399#3" id="veh204_36000" to="-255416251#2" type="veh_passenger"/>
    <trip depart="36184.05" departLane="best" from="159453447#12" id="veh205_36000" to="479621745#2" type="veh_passenger"/>
    <trip depart="36184.95" departLane="best" from="-622873929#0" id="veh206_36000" to="479816723#0" type="veh_passenger"/>
    <trip depart="36185.85" departLane="best" from="245763347#0" id="veh207_36000" to="1036052086#2" type="veh_passenger"/>
    <trip depart="36186.74" departLane="best" from="479797279" id="veh208_36000" to="-100646248#2" type="veh_passenger"/>
    <trip depart="36188.54" departLane="best" from="-475316645#2" id="veh210_36000" to="156148419#2" type="veh_passenger"/>
    <trip depart="36189.44" departLane="best" from="-483796488#0" id="veh211_36000" to="773876919#3" type="veh_passenger"/>
    <trip depart="36192.13" departLane="best" from="178774219#2" id="veh214_36000" to="61163710#1" type="veh_passenger"/>
    <trip depart="36193.93" departLane="best" from="323563821#2" id="veh216_36000" to="773159596#1" type="veh_passenger"/>
    <trip depart="36194.82" departLane="best" from="665453544" id="veh217_36000" to="47070283#3" type="veh_passenger"/>
    <trip depart="36195.72" departLane="best" from="480284575" id="veh218_36000" to="235424958#4" type="veh_passenger"/>
    <trip depart="36196.62" departLane="best" from="622873931#0" id="veh219_36000" to="25931028#2" type="veh_passenger"/>
    <trip depart="36197.52" departLane="best" from="665453553" id="veh220_36000" to="489629072#3" type="veh_passenger"/>
    <trip depart="36199.31" departLane="best" from="1036079534" id="veh222_36000" to="479621758#3" type="veh_passenger"/>
    <trip depart="36202.01" departLane="best" from="-255416209#0" id="veh225_36000" to="1036342983" type="veh_passenger"/>
    <trip depart="36203.8" departLane="best" from="25931909" id="veh227_36000" to="-479797345#1" type="veh_passenger"/>
    <trip depart="36206.5" departLane="best" from="156148419#4" id="veh230_36000" to="256157279" type="veh_passenger"/>
    <trip depart="36209.19" departLane="best" from="321073225#1" id="veh233_36000" to="479816717#0" type="veh_passenger"/>
    <trip depart="36210.09" departLane="best" from="625397297" id="veh234_36000" to="491628727#0" type="veh_passenger"/>
    <trip depart="36210.98" departLane="best" from="1042716324" id="veh235_36000" to="-100646252#0" type="veh_passenger"/>
    <trip depart="36211.88" departLane="best" from="1041544550#0" id="veh236_36000" to="490216931#1" type="veh_passenger"/>
    <trip depart="36212.78" departLane="best" from="623891513" id="veh237_36000" to="773159597#3" type="veh_passenger"/>
    <trip depart="36213.68" departLane="best" from="159453449#7" id="veh238_36000" to="490192688#3-AddedOnRampEdge" type="veh_passenger"/>
    <trip depart="36214.58" departLane="best" from="25931950-AddedOffRampEdge" id="veh239_36000" to="321073948" type="veh_passenger"/>
    <trip depart="36216.37" departLane="best" from="1041504064" id="veh241_36000" to="479797321" type="veh_passenger"/>
    <trip depart="36218.17" departLane="best" from="224737849#3" id="veh243_36000" to="-479797258#6" type="veh_passenger"/>
    <trip depart="36219.96" departLane="best" from="156148397#3" id="veh245_36000" to="25934381#0" type="veh_passenger"/>
    <trip depart="36220.86" departLane="best" from="-156148407#1" id="veh246_36000" to="479751358#0" type="veh_passenger"/>
    <trip depart="36221.76" departLane="best" from="-479797279" id="veh247_36000" to="166563429#5" type="veh_passenger"/>
    <trip depart="36222.66" departLane="best" from="-216060954#0" id="veh248_36000" to="1042449170" type="veh_passenger"/>
    <trip depart="36223.55" departLane="best" from="490718877#0" id="veh249_36000" to="1042449170" type="veh_passenger"/>
    <trip depart="36225.35" departLane="best" from="1036313338" id="veh251_36000" to="-25934385#0" type="veh_passenger"/>
    <trip depart="36226.25" departLane="best" from="-1039220886" id="veh252_36000" to="255416245#1" type="veh_passenger"/>
    <trip depart="36227.15" departLane="best" from="479797258#5" id="veh253_36000" to="538068339#5" type="veh_passenger"/>
    <trip depart="36228.04" departLane="best" from="479797271" id="veh254_36000" to="490216934#0" type="veh_passenger"/>
    <trip depart="36228.94" departLane="best" from="773159597#1" id="veh255_36000" to="-623891512" type="veh_passenger"/>
    <trip depart="36230.74" departLane="best" from="-479621763#11" id="veh257_36000" to="479797310#2" type="veh_passenger"/>
    <trip depart="36231.63" departLane="best" from="267535712" id="veh258_36000" to="100646248#1" type="veh_passenger"/>
    <trip depart="36232.53" departLane="best" from="480250287#2" id="veh259_36000" to="491628727#1" type="veh_passenger"/>
    <trip depart="36233.43" departLane="best" from="-480284570" id="veh260_36000" to="379986688#5" type="veh_passenger"/>
    <trip depart="36234.33" departLane="best" from="490165001#0" id="veh261_36000" to="-479621751#0" type="veh_passenger"/>
    <trip depart="36236.12" departLane="best" from="-475316652#3" id="veh263_36000" to="-159457890#2" type="veh_passenger"/>
    <trip depart="36237.02" departLane="best" from="1040882902#0" id="veh264_36000" to="479797318#0" type="veh_passenger"/>
    <trip depart="36237.92" departLane="best" from="774852739#0" id="veh265_36000" to="1042716327" type="veh_passenger"/>
    <trip depart="36239.71" departLane="best" from="479812143#3" id="veh267_36000" to="479613108#1" type="veh_passenger"/>
    <trip depart="36241.51" departLane="best" from="623891500#1" id="veh269_36000" to="321073251" type="veh_passenger"/>
    <trip depart="36242.41" departLane="best" from="491638590#0" id="veh270_36000" to="1041521601" type="veh_passenger"/>
    <trip depart="36243.31" departLane="best" from="159455874#5" id="veh271_36000" to="1042334799" type="veh_passenger"/>
    <trip depart="36244.2" departLane="best" from="248698674#2" id="veh272_36000" to="1041286369" type="veh_passenger"/>
    <trip depart="36246" departLane="best" from="-475316645#0" id="veh274_36000" to="774852739#1" type="veh_passenger"/>
    <trip depart="36246.9" departLane="best" from="479621763#6" id="veh275_36000" to="622804124#1" type="veh_passenger"/>
    <trip depart="36248.69" departLane="best" from="483726628#1" id="veh277_36000" to="775380332#4" type="veh_passenger"/>
    <trip depart="36249.59" departLane="best" from="1036341364#0" id="veh278_36000" to="61163785#3" type="veh_passenger"/>
    <trip depart="36250.49" departLane="best" from="25931907" id="veh279_36000" to="216060954#3" type="veh_passenger"/>
    <trip depart="36251.39" departLane="best" from="159455892#3" id="veh280_36000" to="481854596#2" type="veh_passenger"/>
    <trip depart="36252.28" departLane="best" from="1036341362#1" id="veh281_36000" to="623474399#2" type="veh_passenger"/>
    <trip depart="36253.18" departLane="best" from="622873931#0" id="veh282_36000" to="-320755658#2" type="veh_passenger"/>
    <trip depart="36254.08" departLane="best" from="665451328#4" id="veh283_36000" to="1036052086#2" type="veh_passenger"/>
    <trip depart="36254.98" departLane="best" from="216065940#2" id="veh284_36000" to="390383583#0" type="veh_passenger"/>
    <trip depart="36257.67" departLane="best" from="-856908280" id="veh287_36000" to="584750383#1" type="veh_passenger"/>
    <trip depart="36259.47" departLane="best" from="480250295#0" id="veh289_36000" to="1036341355" type="veh_passenger"/>
    <trip depart="36261.26" departLane="best" from="-256157283#0" id="veh291_36000" to="480284575" type="veh_passenger"/>
    <trip depart="36262.16" departLane="best" from="235427743#0" id="veh292_36000" to="491628725#0" type="veh_passenger"/>
    <trip depart="36263.06" departLane="best" from="479812143#3" id="veh293_36000" to="479751374#1" type="veh_passenger"/>
    <trip depart="36263.96" departLane="best" from="235436489#0" id="veh294_36000" to="583797089#2" type="veh_passenger"/>
    <trip depart="36264.85" departLane="best" from="-25934395#4" id="veh295_36000" to="100646269#0" type="veh_passenger"/>
    <trip depart="36265.75" departLane="best" from="479812147#0" id="veh296_36000" to="1039133060" type="veh_passenger"/>
    <trip depart="36267.55" departLane="best" from="25931028#4" id="veh298_36000" to="156148419#3" type="veh_passenger"/>
    <trip depart="36268.44" departLane="best" from="489924065" id="veh299_36000" to="1040929341" type="veh_passenger"/>
    <trip depart="36269.34" departLane="best" from="480250296#2" id="veh300_36000" to="1036341350#3" type="veh_passenger"/>
    <trip depart="36270.24" departLane="best" from="1036114082" id="veh301_36000" to="-479621763#9" type="veh_passenger"/>
    <trip depart="36271.14" departLane="best" from="-61163785#3" id="veh302_36000" to="-479621763#5" type="veh_passenger"/>
    <trip depart="36272.04" departLane="best" from="25931033" id="veh303_36000" to="491628725#3" type="veh_passenger"/>
    <trip depart="36272.93" departLane="best" from="-491638583#3" id="veh304_36000" to="100646242#1" type="veh_passenger"/>
    <trip depart="36275.63" departLane="best" from="1036360487#6" id="veh307_36000" to="-475316653#0" type="veh_passenger"/>
    <trip depart="36276.52" departLane="best" from="-622805764#1" id="veh308_36000" to="1032987570#1" type="veh_passenger"/>
    <trip depart="36279.22" departLane="best" from="854040751" id="veh311_36000" to="25931028#5" type="veh_passenger"/>
    <trip depart="36280.12" departLane="best" from="479816723#2" id="veh312_36000" to="-479797258#1" type="veh_passenger"/>
    <trip depart="36281.91" departLane="best" from="658130902" id="veh314_36000" to="26234533#2" type="veh_passenger"/>
    <trip depart="36282.81" departLane="best" from="224737850#2" id="veh315_36000" to="159453472#0" type="veh_passenger"/>
    <trip depart="36283.71" departLane="best" from="-490718877#2" id="veh316_36000" to="-248698662" type="veh_passenger"/>
    <trip depart="36285.5" departLane="best" from="618371797" id="veh318_36000" to="1046628053" type="veh_passenger"/>
    <trip depart="36286.4" departLane="best" from="-255416142#4" id="veh319_36000" to="479621745#1" type="veh_passenger"/>
    <trip depart="36288.2" departLane="best" from="267535712" id="veh321_36000" to="1039133060" type="veh_passenger"/>
    <trip depart="36289.09" departLane="best" from="994962121#3" id="veh322_36000" to="-479621763#11" type="veh_passenger"/>
    <trip depart="36289.99" departLane="best" from="491628725#1" id="veh323_36000" to="379986688#1" type="veh_passenger"/>
    <trip depart="36291.79" departLane="best" from="256157278#0" id="veh325_36000" to="159455875#2" type="veh_passenger"/>
    <trip depart="36292.69" departLane="best" from="166563429#5" id="veh326_36000" to="625413762#1" type="veh_passenger"/>
    <trip depart="36293.58" departLane="best" from="901285521" id="veh327_36000" to="1039133060" type="veh_passenger"/>
    <trip depart="36294.48" departLane="best" from="479621743#1" id="veh328_36000" to="379986768" type="veh_passenger"/>
    <trip depart="36295.38" departLane="best" from="489606084-AddedOnRampEdge" id="veh329_36000" to="765467137" type="veh_passenger"/>
    <trip depart="36296.28" departLane="best" from="-665451328#7" id="veh330_36000" to="-775599627#0" type="veh_passenger"/>
    <trip depart="36297.17" departLane="best" from="479797300#0" id="veh331_36000" to="-480282280" type="veh_passenger"/>
    <trip depart="36298.07" departLane="best" from="-480475790#0" id="veh332_36000" to="-256157278#0" type="veh_passenger"/>
    <trip depart="36298.97" departLane="best" from="-100646234" id="veh333_36000" to="159455875#2" type="veh_passenger"/>