<routes>
    <vType id="veh_passenger" vClass="passenger"/>
    <trip depart="39600" departLane="best" from="479751369#4" id="veh0_39600" to="-159455892#6" type="veh_passenger"/>
    <trip depart="39600.9" departLane="best" from="1036346145" id="veh1_39600" to="100646295#1" type="veh_passenger"/>
    <trip depart="39601.8" departLane="best" from="486825027#0" id="veh2_39600" to="479797313#7" type="veh_passenger"/>
    <trip depart="39602.69" departLane="best" from="665453544" id="veh3_39600" to="-320755659#0" type="veh_passenger"/>
    <trip depart="39604.49" departLane="best" from="100646220#1" id="veh5_39600" to="235424958#4" type="veh_passenger"/>
    <trip depart="39605.39" departLane="best" from="-155033028#1" id="veh6_39600" to="-623891502#0" type="veh_passenger"/>
    <trip depart="39606.28" departLane="best" from="479797258#4" id="veh7_39600" to="25931028#0" type="veh_passenger"/>
    <trip depart="39607.18" departLane="best" from="100646245#3" id="veh8_39600" to="321071861#2" type="veh_passenger"/>
    <trip depart="39608.98" departLane="best" from="1041521602" id="veh10_39600" to="-480276564" type="veh_passenger"/>
    <trip depart="39609.88" departLane="best" from="773876919#5" id="veh11_39600" to="1041187875-AddedOnRampEdge" type="veh_passenger"/>
    <trip depart="39611.67" departLane="best" from="623474397#3" id="veh13_39600" to="321073948" type="veh_passenger"/>
    <trip depart="39612.57" departLane="best" from="61163715#4" id="veh14_39600" to="481854591#1" type="veh_passenger"/>
    <trip depart="39613.47" departLane="best" from="25931033" id="veh15_39600" to="854001005#0" type="veh_passenger"/>
    <trip depart="39615.26" departLane="best" from="622809059#0" id="veh17_39600" to="475316653#4" type="veh_passenger"/>
    <trip depart="39616.16" departLane="best" from="625413783#2" id="veh18_39600" to="320755665" type="veh_passenger"/>
    <trip depart="39619.75" departLane="best" from="-379986746#0" id="veh22_39600" to="1036341357#0" type="veh_passenger"/>
    <trip depart="39621.55" departLane="best" from="1042693362#0" id="veh24_39600" to="-775380332#0" type="veh_passenger"/>
    <trip depart="39622.45" departLane="best" from="1036341360#1" id="veh25_39600" to="743386900" type="veh_passenger"/>
    <trip depart="39623.34" departLane="best" from="479797253#1" id="veh26_39600" to="379986751" type="veh_passenger"/>
    <trip depart="39625.14" departLane="best" from="-480252897#2" id="veh28_39600" to="1042449170" type="veh_passenger"/>
    <trip depart="39626.04" departLane="best" from="901285519#0" id="veh29_39600" to="479621763#4" type="veh_passenger"/>
    <trip depart="39627.83" departLane="best" from="623128861" id="veh31_39600" to="491638585" type="veh_passenger"/>
    <trip depart="39630.53" departLane="best" from="-775380332#5" id="veh34_39600" to="765449928" type="veh_passenger"/>
    <trip depart="39632.32" departLane="best" from="479797277#5" id="veh36_39600" to="1042716326" type="veh_passenger"/>
    <trip depart="39633.22" departLane="best" from="742718528#2" id="veh37_39600" to="166563426#4" type="veh_passenger"/>
    <trip depart="39634.12" departLane="best" from="1036341358#0" id="veh38_39600" to="1036060565" type="veh_passenger"/>
    <trip depart="39635.01" departLane="best" from="26234656#0" id="veh39_39600" to="1036099955" type="veh_passenger"/>
    <trip depart="39635.91" departLane="best" from="321073225#2" id="veh40_39600" to="684128578#0" type="veh_passenger"/>
    <trip depart="39636.81" departLane="best" from="156148402#2" id="veh41_39600" to="100646256#0" type="veh_passenger"/>
    <trip depart="39637.71" departLane="best" from="994962124#6" id="veh42_39600" to="235424974#1" type="veh_passenger"/>
    <trip depart="39639.5" departLane="best" from="-475316653#5" id="veh44_39600" to="479613108#2" type="veh_passenger"/>
    <trip depart="39640.4" departLane="best" from="583797089#1" id="veh45_39600" to="156148413#0" type="veh_passenger"/>
    <trip depart="39641.3" departLane="best" from="-248698662" id="veh46_39600" to="1042676039" type="veh_passenger"/>
    <trip depart="39642.2" departLane="best" from="994962124#3" id="veh47_39600" to="248698674#2" type="veh_passenger"/>
    <trip depart="39643.09" departLane="best" from="854001005#0" id="veh48_39600" to="625413762#3" type="veh_passenger"/>
    <trip depart="39643.99" departLane="best" from="-1036047409#0" id="veh49_39600" to="480284576#2" type="veh_passenger"/>
    <trip depart="39644.89" departLane="best" from="479797341#1-AddedOnRampEdge" id="veh50_39600" to="255416224#2" type="veh_passenger"/>
    <trip depart="39645.79" departLane="best" from="1036341360#0" id="veh51_39600" to="479621763#7" type="veh_passenger"/>
    <trip depart="39646.69" departLane="best" from="-475319370" id="veh52_39600" to="159453447#8" type="veh_passenger"/>
    <trip depart="39647.58" departLane="best" from="178774212#0" id="veh53_39600" to="773159597#3" type="veh_passenger"/>
    <trip depart="39649.38" departLane="best" from="248698668#12" id="veh55_39600" to="-490165001#1" type="veh_passenger"/>
    <trip depart="39651.17" departLane="best" from="1039159932#1" id="veh57_39600" to="479621763#11" type="veh_passenger"/>
    <trip depart="39652.97" departLane="best" from="491462355" id="veh59_39600" to="255416245#1" type="veh_passenger"/>
    <trip depart="39653.87" departLane="best" from="491638583#0" id="veh60_39600" to="255416142#2" type="veh_passenger"/>
    <trip depart="39654.77" departLane="best" from="-100646217#1" id="veh61_39600" to="1040911960" type="veh_passenger"/>
    <trip depart="39659.26" departLane="best" from="-256157283#0" id="veh66_39600" to="216065938#0" type="veh_passenger"/>
    <trip depart="39660.15" departLane="best" from="-248698668#10" id="veh67_39600" to="491628725#1-AddedOffRampEdge" type="veh_passenger"/>
    <trip depart="39661.05" departLane="best" from="491628725#1-AddedOffRampEdge" id="veh68_39600" to="-479797283#1" type="veh_passenger"/>
    <trip depart="39661.95" departLane="best" from="224737854#2" id="veh69_39600" to="25931028#3" type="veh_passenger"/>
    <trip depart="39664.64" departLane="best" from="25931909" id="veh72_39600" to="481854591#1" type="veh_passenger"/>
    <trip depart="39665.54" departLane="best" from="-625413768#3" id="veh73_39600" to="1039159932#1" type="veh_passenger"/>
    <trip depart="39666.44" departLane="best" from="994962124#2" id="veh74_39600" to="479797239#0" type="veh_passenger"/>
    <trip depart="39668.23" departLane="best" from="-479621745#7" id="veh76_39600" to="1032262905#1" type="veh_passenger"/>
    <trip depart="39669.13" departLane="best" from="1041504065" id="veh77_39600" to="321071861#1" type="veh_passenger"/>
    <trip depart="39670.03" departLane="best" from="1032665742" id="veh78_39600" to="100646260#0" type="veh_passenger"/>
    <trip depart="39670.93" departLane="best" from="-248698668#8" id="veh79_39600" to="479621745#7" type="veh_passenger"/>
    <trip depart="39672.72" departLane="best" from="625413768#2" id="veh81_39600" to="-255416245#0" type="veh_passenger"/>
    <trip depart="39674.52" departLane="best" from="-994875416" id="veh83_39600" to="-479797308" type="veh_passenger"/>
    <trip depart="39675.42" departLane="best" from="742727484#1" id="veh84_39600" to="26234533#0" type="veh_passenger"/>
    <trip depart="39676.31" departLane="best" from="224737852#6" id="veh85_39600" to="538068606-AddedOffRampEdge" type="veh_passenger"/>
    <trip depart="39677.21" departLane="best" from="-320758120" id="veh86_39600" to="156148432#0" type="veh_passenger"/>
    <trip depart="39679.01" departLane="best" from="481854588#3" id="veh88_39600" to="479797313#0" type="veh_passenger"/>
    <trip depart="39680.8" departLane="best" from="156148407#0" id="veh90_39600" to="1041235840#1-AddedOffRampEdge" type="veh_passenger"/>
    <trip depart="39681.7" departLane="best" from="625413783#2" id="veh91_39600" to="1036062887" type="veh_passenger"/>
    <trip depart="39682.6" departLane="best" from="-61163715#2" id="veh92_39600" to="159455874#9" type="veh_passenger"/>
    <trip depart="39683.5" departLane="best" from="159453472#0" id="veh93_39600" to="1036341357#1" type="veh_passenger"/>
    <trip depart="39685.29" departLane="best" from="166563429#6" id="veh95_39600" to="625413766#0" type="veh_passenger"/>
    <trip depart="39687.09" departLane="best" from="996026061#1" id="veh97_39600" to="622873931#7" type="veh_passenger"/>
    <trip depart="39687.99" departLane="best" from="854001000#1" id="veh98_39600" to="742727471" type="veh_passenger"/>
    <trip depart="39689.78" departLane="best" from="235427270" id="veh100_39600" to="100646217#3" type="veh_passenger"/>
    <trip depart="39692.47" departLane="best" from="1036341358#1" id="veh103_39600" to="538068606-AddedOffRampEdge" type="veh_passenger"/>
    <trip depart="39693.37" departLane="best" from="178774217#1" id="veh104_39600" to="156148417" type="veh_passenger"/>
    <trip depart="39695.17" departLane="best" from="25934395#5" id="veh106_39600" to="480283416#1" type="veh_passenger"/>
    <trip depart="39696.07" departLane="best" from="-480250296#0" id="veh107_39600" to="1036360487#6" type="veh_passenger"/>
    <trip depart="39696.96" departLane="best" from="854001000#0" id="veh108_39600" to="320758120" type="veh_passenger"/>
    <trip depart="39697.86" departLane="best" from="25931909" id="veh109_39600" to="490192688#5" type="veh_passenger"/>
    <trip depart="39698.76" departLane="best" from="-234517427#4" id="veh110_39600" to="320758139" type="veh_passenger"/>
    <trip depart="39699.66" departLane="best" from="248698670#0" id="veh111_39600" to="623891500#1" type="veh_passenger"/>
    <trip depart="39700.55" departLane="best" from="-480250299#0" id="veh112_39600" to="774852739#1" type="veh_passenger"/>
    <trip depart="39702.35" departLane="best" from="323563821#1" id="veh114_39600" to="479797313#4" type="veh_passenger"/>
    <trip depart="39705.04" departLane="best" from="323563821#0" id="veh117_39600" to="475316658#1" type="veh_passenger"/>
    <trip depart="39705.94" departLane="best" from="159453449#8" id="veh118_39600" to="320758139" type="veh_passenger"/>
    <trip depart="39706.84" departLane="best" from="256157278#1" id="veh119_39600" to="742727484#3" type="veh_passenger"/>
    <trip depart="39707.74" departLane="best" from="-658095569#2" id="veh120_39600" to="480276562" type="veh_passenger"/>
    <trip depart="39708.63" departLane="best" from="1036060565" id="veh121_39600" to="1042716327" type="veh_passenger"/>
    <trip depart="39709.53" departLane="best" from="479797313#7" id="veh122_39600" to="1038266651" type="veh_passenger"/>
    <trip depart="39710.43" departLane="best" from="1040925852" id="veh123_39600" to="490213894-AddedOffRampEdge" type="veh_passenger"/>
    <trip depart="39711.33" departLane="best" from="-248698670#2" id="veh124_39600" to="166563426#3" type="veh_passenger"/>
    <trip depart="39712.23" departLane="best" from="-255416142#1" id="veh125_39600" to="100646208" type="veh_passenger"/>
    <trip depart="39713.12" departLane="best" from="1036341358#1" id="veh126_39600" to="742727484#0" type="veh_passenger"/>
    <trip depart="39714.02" departLane="best" from="1042693361#1" id="veh127_39600" to="-480282281#0" type="veh_passenger"/>
    <trip depart="39714.92" departLane="best" from="622873931#7" id="veh128_39600" to="480250293#0" type="veh_passenger"/>
    <trip depart="39715.82" departLane="best" from="475316653#6" id="veh129_39600" to="854052897#4" type="veh_passenger"/>
    <trip depart="39716.71" departLane="best" from="479797277#2" id="veh130_39600" to="-100646260#1" type="veh_passenger"/>
    <trip depart="39717.61" departLane="best" from="618364867#1" id="veh131_39600" to="1038110939" type="veh_passenger"/>
    <trip depart="39718.51" departLane="best" from="479797310#0" id="veh132_39600" to="765449926#0" type="veh_passenger"/>
    <trip depart="39720.31" departLane="best" from="-475316645#2" id="veh134_39600" to="25931028#5" type="veh_passenger"/>
    <trip depart="39723" departLane="best" from="479621763#12" id="veh137_39600" to="1036099956#3" type="veh_passenger"/>
    <trip depart="39723.9" departLane="best" from="235427743#0" id="veh138_39600" to="696730624" type="veh_passenger"/>
    <trip depart="39724.8" departLane="best" from="623474397#0" id="veh139_39600" to="-379986688#2" type="veh_passenger"/>
    <trip depart="39725.69" departLane="best" from="159453472#4" id="veh140_39600" to="1036341355" type="veh_passenger"/>
    <trip depart="39726.59" departLane="best" from="-100646242#1" id="veh141_39600" to="491632371#2" type="veh_passenger"/>
    <trip depart="39727.49" departLane="best" from="479621774#2" id="veh142_39600" to="1036099953" type="veh_passenger"/>
    <trip depart="39728.39" departLane="best" from="489606090" id="veh143_39600" to="25931028#4" type="veh_passenger"/>
    <trip depart="39729.28" departLane="best" from="159455874#4" id="veh144_39600" to="-100646264#0" type="veh_passenger"/>
    <trip depart="39730.18" departLane="best" from="-255416153" id="veh145_39600" to="665451330#1" type="veh_passenger"/>
    <trip depart="39731.98" departLane="best" from="622873934#0" id="veh147_39600" to="320758130#1" type="veh_passenger"/>
    <trip depart="39732.88" departLane="best" from="-479816722#1" id="veh148_39600" to="-479797258#5" type="veh_passenger"/>
    <trip depart="39733.77" departLane="best" from="1040260533" id="veh149_39600" to="684128578#2" type="veh_passenger"/>
    <trip depart="39734.67" departLane="best" from="583797089#8" id="veh150_39600" to="625413762#3" type="veh_passenger"/>
    <trip depart="39735.57" departLane="best" from="684128578#0" id="veh151_39600" to="-775380332#4" type="veh_passenger"/>
    <trip depart="39737.36" departLane="best" from="491638583#6" id="veh153_39600" to="665451330#2" type="veh_passenger"/>
    <trip depart="39738.26" departLane="best" from="156148419#1" id="veh154_39600" to="475319371#0" type="veh_passenger"/>
    <trip depart="39740.06" departLane="best" from="625418511" id="veh156_39600" to="854040750" type="veh_passenger"/>
    <trip depart="39743.65" departLane="best" from="61163710#13" id="veh160_39600" to="625413783#2" type="veh_passenger"/>
    <trip depart="39745.44" departLane="best" from="538068340#1" id="veh162_39600" to="-479613101#1" type="veh_passenger"/>
    <trip depart="39747.24" departLane="best" from="100646256#1" id="veh164_39600" to="618371794" type="veh_passenger"/>
    <trip depart="39748.14" departLane="best" from="216060954#1" id="veh165_39600" to="1039133060" type="veh_passenger"/>
    <trip depart="39749.04" departLane="best" from="583797089#7" id="veh166_39600" to="1032987570#1" type="veh_passenger"/>
    <trip depart="39749.93" departLane="best" from="-1042698679" id="veh167_39600" to="-622804129#0" type="veh_passenger"/>
    <trip depart="39750.83" departLane="best" from="1041235840#0" id="veh168_39600" to="625413783#3" type="veh_passenger"/>
    <trip depart="39751.73" departLane="best" from="479751865#1" id="veh169_39600" to="1042728028#1" type="veh_passenger"/>
    <trip depart="39752.63" departLane="best" from="854052892-AddedOffRampEdge" id="veh170_39600" to="255416223#1" type="veh_passenger"/>
    <trip depart="39753.52" departLane="best" from="764267604" id="veh171_39600" to="-479621752#0" type="veh_passenger"/>
    <trip depart="39754.42" departLane="best" from="854001002#1" id="veh172_39600" to="-490165001#1" type="veh_passenger"/>
    <trip depart="39755.32" departLane="best" from="775122579#1" id="veh173_39600" to="1036114082" type="veh_passenger"/>
    <trip depart="39756.22" departLane="best" from="-475316653#0" id="veh174_39600" to="159453447#8" type="veh_passenger"/>
    <trip depart="39757.12" departLane="best" from="481854585" id="veh175_39600" to="1039159937" type="veh_passenger"/>
    <trip depart="39758.91" departLane="best" from="123423117#1" id="veh177_39600" to="320755661#1" type="veh_passenger"/>
    <trip depart="39759.81" departLane="best" from="1036338535" id="veh178_39600" to="480250299#1" type="veh_passenger"/>
    <trip depart="39760.71" departLane="best" from="-100646220#2" id="veh179_39600" to="742727470" type="veh_passenger"/>
    <trip depart="39762.5" departLane="best" from="489606090" id="veh181_39600" to="479797310#7" type="veh_passenger"/>
    <trip depart="39763.4" departLane="best" from="1042449169#1" id="veh182_39600" to="-255416229#2" type="veh_passenger"/>
    <trip depart="39765.2" departLane="best" from="1040882903" id="veh184_39600" to="623138417" type="veh_passenger"/>
    <trip depart="39766.09" departLane="best" from="480284576#1" id="veh185_39600" to="1038324580" type="veh_passenger"/>
    <trip depart="39766.99" departLane="best" from="1040591005" id="veh186_39600" to="145126347" type="veh_passenger"/>
    <trip depart="39767.89" departLane="best" from="156148404#3" id="veh187_39600" to="1036360487#5" type="veh_passenger"/>
    <trip depart="39768.79" departLane="best" from="-479621763#5" id="veh188_39600" to="156148404#2" type="veh_passenger"/>
    <trip depart="39769.69" departLane="best" from="764267605" id="veh189_39600" to="479797318#0" type="veh_passenger"/>
    <trip depart="39771.48" departLane="best" from="1039159935" id="veh191_39600" to="25931028#2" type="veh_passenger"/>
    <trip depart="39772.38" departLane="best" from="-100646217#0" id="veh192_39600" to="1036342983" type="veh_passenger"/>
    <trip depart="39773.28" departLane="best" from="159455874#8" id="veh193_39600" to="320758122#1" type="veh_passenger"/>
    <trip depart="39775.07" departLane="best" from="166563429#4" id="veh195_39600" to="100646217#3" type="veh_passenger"/>
    <trip depart="39775.97" departLane="best" from="224737854#0" id="veh196_39600" to="684135634#2" type="veh_passenger"/>
    <trip depart="39776.87" departLane="best" from="583797089#8" id="veh197_39600" to="-483726628#0" type="veh_passenger"/>
    <trip depart="39778.66" departLane="best" from="479621758#4" id="veh199_39600" to="1041187875" type="veh_passenger"/>
    <trip depart="39780.46" departLane="best" from="479797318#4" id="veh201_39600" to="1032262905#1" type="veh_passenger"/>
    <trip depart="39781.36" departLane="best" from="-623891515#1" id="veh202_39600" to="-159455892#4" type="veh_passenger"/>
    <trip depart="39783.15" departLane="best" from="623474399#3" id="veh204_39600" to="-255416251#2" type="veh_passenger"/>
    <trip depart="39784.05" departLane="best" from="159453447#12" id="veh205_39600" to="479621745#2" type="veh_passenger"/>
    <trip depart="39784.95" departLane="best" from="-622873929#0" id="veh206_39600" to="479816723#0" type="veh_passenger"/>
    <trip depart="39785.85" departLane="best" from="245763347#0" id="veh207_39600" to="1036052086#2" type="veh_passenger"/>
    <trip depart="39786.74" departLane="best" from="479797279" id="veh208_39600" to="-100646248#2" type="veh_passenger"/>
    <trip depart="39788.54" departLane="best" from="-475316645#2" id="veh210_39600" to="156148419#2" type="veh_passenger"/>
    <trip depart="39789.44" departLane="best" from="-483796488#0" id="veh211_39600" to="773876919#3" type="veh_passenger"/>
    <trip depart="39792.13" departLane="best" from="178774219#2" id="veh214_39600" to="61163710#1" type="veh_passenger"/>
    <trip depart="39793.93" departLane="best" from="323563821#2" id="veh216_39600" to="773159596#1" type="veh_passenger"/>
    <trip depart="39794.82" departLane="best" from="665453544" id="veh217_39600" to="47070283#3" type="veh_passenger"/>
    <trip depart="39795.72" departLane="best" from="480284575" id="veh218_39600" to="235424958#4" type="veh_passenger"/>
    <trip depart="39796.62" departLane="best" from="622873931#0" id="veh219_39600" to="25931028#2" type="veh_passenger"/>
    <trip depart="39797.52" departLane="best" from="665453553" id="veh220_39600" to="489629072#3" type="veh_passenger"/>
    <trip depart="39799.31" departLane="best" from="1036079534" id="veh222_39600" to="479621758#3" type="veh_passenger"/>
    <trip depart="39802.01" departLane="best" from="-255416209#0" id="veh225_39600" to="1036342983" type="veh_passenger"/>
    <trip depart="39803.8" departLane="best" from="25931909" id="veh227_39600" to="-479797345#1" type="veh_passenger"/>
    <trip depart="39806.5" departLane="best" from="156148419#4" id="veh230_39600" to="256157279" type="veh_passenger"/>
    <trip depart="39809.19" departLane="best" from="321073225#1" id="veh233_39600" to="479816717#0" type="veh_passenger"/>
    <trip depart="39810.09" departLane="best" from="625397297" id="veh234_39600" to="491628727#0" type="veh_passenger"/>
    <trip depart="39810.98" departLane="best" from="1042716324" id="veh235_39600" to="-100646252#0" type="veh_passenger"/>
    <trip depart="39811.88" departLane="best" from="1041544550#0" id="veh236_39600" to="490216931#1" type="veh_passenger"/>
    <trip depart="39812.78" departLane="best" from="623891513" id="veh237_39600" to="773159597#3" type="veh_passenger"/>
    <trip depart="39813.68" departLane="best" from="159453449#7" id="veh238_39600" to="490192688#3-AddedOnRampEdge" type="veh_passenger"/>
    <trip depart="39814.58" departLane="best" from="25931950-AddedOffRampEdge" id="veh239_39600" to="321073948" type="veh_passenger"/>
    <trip depart="39816.37" departLane="best" from="1041504064" id="veh241_39600" to="479797321" type="veh_passenger"/>
    <trip depart="39818.17" departLane="best" from="224737849#3" id="veh243_39600" to="-479797258#6" type="veh_passenger"/>
    <trip depart="39819.96" departLane="best" from="156148397#3" id="veh245_39600" to="25934381#0" type="veh_passenger"/>
    <trip depart="39820.86" departLane="best" from="-156148407#1" id="veh246_39600" to="479751358#0" type="veh_passenger"/>
    <trip depart="39821.76" departLane="best" from="-479797279" id="veh247_39600" to="166563429#5" type="veh_passenger"/>
    <trip depart="39822.66" departLane="best" from="-216060954#0" id="veh248_39600" to="1042449170" type="veh_passenger"/>
    <trip depart="39823.55" departLane="best" from="490718877#0" id="veh249_39600" to="1042449170" type="veh_passenger"/>
    <trip depart="39825.35" departLane="best" from="1036313338" id="veh251_39600" to="-25934385#0" type="veh_passenger"/>
    <trip depart="39826.25" departLane="best" from="-1039220886" id="veh252_39600" to="255416245#1" type="veh_passenger"/>
    <trip depart="39827.15" departLane="best" from="479797258#5" id="veh253_39600" to="538068339#5" type="veh_passenger"/>
    <trip depart="39828.04" departLane="best" from="479797271" id="veh254_39600" to="490216934#0" type="veh_passenger"/>
    <trip depart="39828.94" departLane="best" from="773159597#1" id="veh255_39600" to="-623891512" type="veh_passenger"/>
    <trip depart="39830.74" departLane="best" from="-479621763#11" id="veh257_39600" to="479797310#2" type="veh_passenger"/>
    <trip depart="39831.63" departLane="best" from="267535712" id="veh258_39600" to="100646248#1" type="veh_passenger"/>
    <trip depart="39832.53" departLane="best" from="480250287#2" id="veh259_39600" to="491628727#1" type="veh_passenger"/>
    <trip depart="39833.43" departLane="best" from="-480284570" id="veh260_39600" to="379986688#5" type="veh_passenger"/>
    <trip depart="39834.33" departLane="best" from="490165001#0" id="veh261_39600" to="-479621751#0" type="veh_passenger"/>
    <trip depart="39836.12" departLane="best" from="-475316652#3" id="veh263_39600" to="-159457890#2" type="veh_passenger"/>
    <trip depart="39837.02" departLane="best" from="1040882902#0" id="veh264_39600" to="479797318#0" type="veh_passenger"/>
    <trip depart="39837.92" departLane="best" from="774852739#0" id="veh265_39600" to="1042716327" type="veh_passenger"/>
    <trip depart="39839.71" departLane="best" from="479812143#3" id="veh267_39600" to="479613108#1" type="veh_passenger"/>
    <trip depart="39841.51" departLane="best" from="623891500#1" id="veh269_39600" to="321073251" type="veh_passenger"/>
    <trip depart="39842.41" departLane="best" from="491638590#0" id="veh270_39600" to="1041521601" type="veh_passenger"/>
    <trip depart="39843.31" departLane="best" from="159455874#5" id="veh271_39600" to="1042334799" type="veh_passenger"/>
    <trip depart="39844.2" departLane="best" from="248698674#2" id="veh272_39600" to="1041286369" type="veh_passenger"/>
    <trip depart="39846" departLane="best" from="-475316645#0" id="veh274_39600" to="774852739#1" type="veh_passenger"/>
    <trip depart="39846.9" departLane="best" from="479621763#6" id="veh275_39600" to="622804124#1" type="veh_passenger"/>
    <trip depart="39848.69" departLane="best" from="483726628#1" id="veh277_39600" to="775380332#4" type="veh_passenger"/>
    <trip depart="39849.59" departLane="best" from="1036341364#0" id="veh278_39600" to="61163785#3" type="veh_passenger"/>
    <trip depart="39850.49" departLane="best" from="25931907" id="veh279_39600" to="216060954#3" type="veh_passenger"/>
    <trip depart="39851.39" departLane="best" from="159455892#3" id="veh280_39600" to="481854596#2" type="veh_passenger"/>
    <trip depart="39852.28" departLane="best" from="1036341362#1" id="veh281_39600" to="623474399#2" type="veh_passenger"/>
    <trip depart="39853.18" departLane="best" from="622873931#0" id="veh282_39600" to="-320755658#2" type="veh_passenger"/>
    <trip depart="39854.08" departLane="best" from="665451328#4" id="veh283_39600" to="1036052086#2" type="veh_passenger"/>
    <trip depart="39854.98" departLane="best" from="216065940#2" id="veh284_39600" to="390383583#0" type="veh_passenger"/>
    <trip depart="39857.67" departLane="best" from="-856908280" id="veh287_39600" to="584750383#1" type="veh_passenger"/>
    <trip depart="39859.47" departLane="best" from="480250295#0" id="veh289_39600" to="1036341355" type="veh_passenger"/>
    <trip depart="39861.26" departLane="best" from="-256157283#0" id="veh291_39600" to="480284575" type="veh_passenger"/>
    <trip depart="39862.16" departLane="best" from="235427743#0" id="veh292_39600" to="491628725#0" type="veh_passenger"/>
    <trip depart="39863.06" departLane="best" from="479812143#3" id="veh293_39600" to="479751374#1" type="veh_passenger"/>
    <trip depart="39863.96" departLane="best" from="235436489#0" id="veh294_39600" to="583797089#2" type="veh_passenger"/>
    <trip depart="39864.85" departLane="best" from="-25934395#4" id="veh295_39600" to="100646269#0" type="veh_passenger"/>
    <trip depart="39865.75" departLane="best" from="479812147#0" id="veh296_39600" to="1039133060" type="veh_passenger"/>
    <trip depart="39867.55" departLane="best" from="25931028#4" id="veh298_39600" to="156148419#3" type="veh_passenger"/>
    <trip depart="39868.44" departLane="best" from="489924065" id="veh299_39600" to="1040929341" type="veh_passenger"/>
    <trip depart="39869.34" departLane="best" from="480250296#2" id="veh300_39600" to="1036341350#3" type="veh_passenger"/>
    <trip depart="39870.24" departLane="best" from="1036114082" id="veh301_39600" to="-479621763#9" type="veh_passenger"/>
    <trip depart="39871.14" departLane="best" from="-61163785#3" id="veh302_39600" to="-479621763#5" type="veh_passenger"/>
    <trip depart="39872.04" departLane="best" from="25931033" id="veh303_39600" to="491628725#3" type="veh_passenger"/>
    <trip depart="39872.93" departLane="best" from="-491638583#3" id="veh304_39600" to="100646242#1" type="veh_passenger"/>
    <trip depart="39875.63" departLane="best" from="1036360487#6" id="veh307_39600" to="-475316653#0" type="veh_passenger"/>
    <trip depart="39876.52" departLane="best" from="-622805764#1" id="veh308_39600" to="1032987570#1" type="veh_passenger"/>
    <trip depart="39879.22" departLane="best" from="854040751" id="veh311_39600" to="25931028#5" type="veh_passenger"/>
    <trip depart="39880.12" departLane="best" from="479816723#2" id="veh312_39600" to="-479797258#1" type="veh_passenger"/>
    <trip depart="39881.91" departLane="best" from="658130902" id="veh314_39600" to="26234533#2" type="veh_passenger"/>
    <trip depart="39882.81" departLane="best" from="224737850#2" id="veh315_39600" to="159453472#0" type="veh_passenger"/>
    <trip depart="39883.71" departLane="best" from="-490718877#2" id="veh316_39600" to="-248698662" type="veh_passenger"/>
    <trip depart="39885.5" departLane="best" from="618371797" id="veh318_39600" to="1046628053" type="veh_passenger"/>
    <trip depart="39886.4" departLane="best" from="-255416142#4" id="veh319_39600" to="479621745#1" type="veh_passenger"/>
    <trip depart="39888.2" departLane="best" from="267535712" id="veh321_39600" to="1039133060" type="veh_passenger"/>
    <trip depart="39889.09" departLane="best" from="994962121#3" id="veh322_39600" to="-479621763#11" type="veh_passenger"/>
    <trip depart="39889.99" departLane="best" from="491628725#1" id="veh323_39600" to="379986688#1" type="veh_passenger"/>
    <trip depart="39891.79" departLane="best" from="256157278#0" id="veh325_39600" to="159455875#2" type="veh_passenger"/>
    <trip depart="39892.69" departLane="best" from="166563429#5" id="veh326_39600" to="625413762#1" type="veh_passenger"/>
    <trip depart="39893.58" departLane="best" from="901285521" id="veh327_39600" to="1039133060" type="veh_passenger"/>
    <trip depart="39894.48" departLane="best" from="479621743#1" id="veh328_39600" to="379986768" type="veh_passenger"/>
    <trip depart="39895.38" departLane="best" from="489606084-AddedOnRampEdge" id="veh329_39600" to="765467137" type="veh_passenger"/>
    <trip depart="39896.28" departLane="best" from="-665451328#7" id="veh330_39600" to="-775599627#0" type="veh_passenger"/>
    <trip depart="39897.17" departLane="best" from="479797300#0" id="veh331_39600" to="-480282280" type="veh_passenger"/>
    <trip depart="39898.07" departLane="best" from="-480475790#0" id="veh332_39600" to="-256157278#0" type="veh_passenger"/>
    <trip depart="39898.97" departLane="best" from="-100646234" id="veh333_39600" to="159455875#2" type="veh_passenger"/>