<routes>
    <vType id="veh_passenger" vClass="passenger"/>
    <trip depart="61200" departLane="best" from="479751369#4" id="veh0_61200" to="-159455892#6" type="veh_passenger"/>
    <trip depart="61200.9" departLane="best" from="1036346145" id="veh1_61200" to="100646295#1" type="veh_passenger"/>
    <trip depart="61201.8" departLane="best" from="486825027#0" id="veh2_61200" to="479797313#7" type="veh_passenger"/>
    <trip depart="61202.69" departLane="best" from="665453544" id="veh3_61200" to="-320755659#0" type="veh_passenger"/>
    <trip depart="61204.49" departLane="best" from="100646220#1" id="veh5_61200" to="235424958#4" type="veh_passenger"/>
    <trip depart="61205.39" departLane="best" from="-155033028#1" id="veh6_61200" to="-623891502#0" type="veh_passenger"/>
    <trip depart="61206.28" departLane="best" from="479797258#4" id="veh7_61200" to="25931028#0" type="veh_passenger"/>
    <trip depart="61207.18" departLane="best" from="100646245#3" id="veh8_61200" to="321071861#2" type="veh_passenger"/>
    <trip depart="61208.98" departLane="best" from="1041521602" id="veh10_61200" to="-480276564" type="veh_passenger"/>
    <trip depart="61209.88" departLane="best" from="773876919#5" id="veh11_61200" to="1041187875-AddedOnRampEdge" type="veh_passenger"/>
    <trip depart="61211.67" departLane="best" from="623474397#3" id="veh13_61200" to="321073948" type="veh_passenger"/>
    <trip depart="61212.57" departLane="best" from="61163715#4" id="veh14_61200" to="481854591#1" type="veh_passenger"/>
    <trip depart="61213.47" departLane="best" from="25931033" id="veh15_61200" to="854001005#0" type="veh_passenger"/>
    <trip depart="61215.26" departLane="best" from="622809059#0" id="veh17_61200" to="475316653#4" type="veh_passenger"/>
    <trip depart="61216.16" departLane="best" from="625413783#2" id="veh18_61200" to="320755665" type="veh_passenger"/>
    <trip depart="61219.75" departLane="best" from="-379986746#0" id="veh22_61200" to="1036341357#0" type="veh_passenger"/>
    <trip depart="61221.55" departLane="best" from="1042693362#0" id="veh24_61200" to="-775380332#0" type="veh_passenger"/>
    <trip depart="61222.45" departLane="best" from="1036341360#1" id="veh25_61200" to="743386900" type="veh_passenger"/>
    <trip depart="61223.34" departLane="best" from="479797253#1" id="veh26_61200" to="379986751" type="veh_passenger"/>
    <trip depart="61225.14" departLane="best" from="-480252897#2" id="veh28_61200" to="1042449170" type="veh_passenger"/>
    <trip depart="61226.04" departLane="best" from="901285519#0" id="veh29_61200" to="479621763#4" type="veh_passenger"/>
    <trip depart="61227.83" departLane="best" from="623128861" id="veh31_61200" to="491638585" type="veh_passenger"/>
    <trip depart="61230.53" departLane="best" from="-775380332#5" id="veh34_61200" to="765449928" type="veh_passenger"/>
    <trip depart="61232.32" departLane="best" from="479797277#5" id="veh36_61200" to="1042716326" type="veh_passenger"/>
    <trip depart="61233.22" departLane="best" from="742718528#2" id="veh37_61200" to="166563426#4" type="veh_passenger"/>
    <trip depart="61234.12" departLane="best" from="1036341358#0" id="veh38_61200" to="1036060565" type="veh_passenger"/>
    <trip depart="61235.01" departLane="best" from="26234656#0" id="veh39_61200" to="1036099955" type="veh_passenger"/>
    <trip depart="61235.91" departLane="best" from="321073225#2" id="veh40_61200" to="684128578#0" type="veh_passenger"/>
    <trip depart="61236.81" departLane="best" from="156148402#2" id="veh41_61200" to="100646256#0" type="veh_passenger"/>
    <trip depart="61237.71" departLane="best" from="994962124#6" id="veh42_61200" to="235424974#1" type="veh_passenger"/>
    <trip depart="61239.5" departLane="best" from="-475316653#5" id="veh44_61200" to="479613108#2" type="veh_passenger"/>
    <trip depart="61240.4" departLane="best" from="583797089#1" id="veh45_61200" to="156148413#0" type="veh_passenger"/>
    <trip depart="61241.3" departLane="best" from="-248698662" id="veh46_61200" to="1042676039" type="veh_passenger"/>
    <trip depart="61242.2" departLane="best" from="994962124#3" id="veh47_61200" to="248698674#2" type="veh_passenger"/>
    <trip depart="61243.09" departLane="best" from="854001005#0" id="veh48_61200" to="625413762#3" type="veh_passenger"/>
    <trip depart="61243.99" departLane="best" from="-1036047409#0" id="veh49_61200" to="480284576#2" type="veh_passenger"/>
    <trip depart="61244.89" departLane="best" from="479797341#1-AddedOnRampEdge" id="veh50_61200" to="255416224#2" type="veh_passenger"/>
    <trip depart="61245.79" departLane="best" from="1036341360#0" id="veh51_61200" to="479621763#7" type="veh_passenger"/>
    <trip depart="61246.69" departLane="best" from="-475319370" id="veh52_61200" to="159453447#8" type="veh_passenger"/>
    <trip depart="61247.58" departLane="best" from="178774212#0" id="veh53_61200" to="773159597#3" type="veh_passenger"/>
    <trip depart="61249.38" departLane="best" from="248698668#12" id="veh55_61200" to="-490165001#1" type="veh_passenger"/>
    <trip depart="61251.17" departLane="best" from="1039159932#1" id="veh57_61200" to="479621763#11" type="veh_passenger"/>
    <trip depart="61252.97" departLane="best" from="491462355" id="veh59_61200" to="255416245#1" type="veh_passenger"/>
    <trip depart="61253.87" departLane="best" from="491638583#0" id="veh60_61200" to="255416142#2" type="veh_passenger"/>
    <trip depart="61254.77" departLane="best" from="-100646217#1" id="veh61_61200" to="1040911960" type="veh_passenger"/>
    <trip depart="61259.26" departLane="best" from="-256157283#0" id="veh66_61200" to="216065938#0" type="veh_passenger"/>
    <trip depart="61260.15" departLane="best" from="-248698668#10" id="veh67_61200" to="491628725#1-AddedOffRampEdge" type="veh_passenger"/>
    <trip depart="61261.05" departLane="best" from="491628725#1-AddedOffRampEdge" id="veh68_61200" to="-479797283#1" type="veh_passenger"/>
    <trip depart="61261.95" departLane="best" from="224737854#2" id="veh69_61200" to="25931028#3" type="veh_passenger"/>
    <trip depart="61264.64" departLane="best" from="25931909" id="veh72_61200" to="481854591#1" type="veh_passenger"/>
    <trip depart="61265.54" departLane="best" from="-625413768#3" id="veh73_61200" to="1039159932#1" type="veh_passenger"/>
    <trip depart="61266.44" departLane="best" from="994962124#2" id="veh74_61200" to="479797239#0" type="veh_passenger"/>
    <trip depart="61268.23" departLane="best" from="-479621745#7" id="veh76_61200" to="1032262905#1" type="veh_passenger"/>
    <trip depart="61269.13" departLane="best" from="1041504065" id="veh77_61200" to="321071861#1" type="veh_passenger"/>
    <trip depart="61270.03" departLane="best" from="1032665742" id="veh78_61200" to="100646260#0" type="veh_passenger"/>
    <trip depart="61270.93" departLane="best" from="-248698668#8" id="veh79_61200" to="479621745#7" type="veh_passenger"/>
    <trip depart="61272.72" departLane="best" from="625413768#2" id="veh81_61200" to="-255416245#0" type="veh_passenger"/>
    <trip depart="61274.52" departLane="best" from="-994875416" id="veh83_61200" to="-479797308" type="veh_passenger"/>
    <trip depart="61275.42" departLane="best" from="742727484#1" id="veh84_61200" to="26234533#0" type="veh_passenger"/>
    <trip depart="61276.31" departLane="best" from="224737852#6" id="veh85_61200" to="538068606-AddedOffRampEdge" type="veh_passenger"/>
    <trip depart="61277.21" departLane="best" from="-320758120" id="veh86_61200" to="156148432#0" type="veh_passenger"/>
    <trip depart="61279.01" departLane="best" from="481854588#3" id="veh88_61200" to="479797313#0" type="veh_passenger"/>
    <trip depart="61280.8" departLane="best" from="156148407#0" id="veh90_61200" to="1041235840#1-AddedOffRampEdge" type="veh_passenger"/>
    <trip depart="61281.7" departLane="best" from="625413783#2" id="veh91_61200" to="1036062887" type="veh_passenger"/>
    <trip depart="61282.6" departLane="best" from="-61163715#2" id="veh92_61200" to="159455874#9" type="veh_passenger"/>
    <trip depart="61283.5" departLane="best" from="159453472#0" id="veh93_61200" to="1036341357#1" type="veh_passenger"/>
    <trip depart="61285.29" departLane="best" from="166563429#6" id="veh95_61200" to="625413766#0" type="veh_passenger"/>
    <trip depart="61287.09" departLane="best" from="996026061#1" id="veh97_61200" to="622873931#7" type="veh_passenger"/>
    <trip depart="61287.99" departLane="best" from="854001000#1" id="veh98_61200" to="742727471" type="veh_passenger"/>
    <trip depart="61289.78" departLane="best" from="235427270" id="veh100_61200" to="100646217#3" type="veh_passenger"/>
    <trip depart="61292.47" departLane="best" from="1036341358#1" id="veh103_61200" to="538068606-AddedOffRampEdge" type="veh_passenger"/>
    <trip depart="61293.37" departLane="best" from="178774217#1" id="veh104_61200" to="156148417" type="veh_passenger"/>
    <trip depart="61295.17" departLane="best" from="25934395#5" id="veh106_61200" to="480283416#1" type="veh_passenger"/>
    <trip depart="61296.07" departLane="best" from="-480250296#0" id="veh107_61200" to="1036360487#6" type="veh_passenger"/>
    <trip depart="61296.96" departLane="best" from="854001000#0" id="veh108_61200" to="320758120" type="veh_passenger"/>
    <trip depart="61297.86" departLane="best" from="25931909" id="veh109_61200" to="490192688#5" type="veh_passenger"/>
    <trip depart="61298.76" departLane="best" from="-234517427#4" id="veh110_61200" to="320758139" type="veh_passenger"/>
    <trip depart="61299.66" departLane="best" from="248698670#0" id="veh111_61200" to="623891500#1" type="veh_passenger"/>
    <trip depart="61300.55" departLane="best" from="-480250299#0" id="veh112_61200" to="774852739#1" type="veh_passenger"/>
    <trip depart="61302.35" departLane="best" from="323563821#1" id="veh114_61200" to="479797313#4" type="veh_passenger"/>
    <trip depart="61305.04" departLane="best" from="323563821#0" id="veh117_61200" to="475316658#1" type="veh_passenger"/>
    <trip depart="61305.94" departLane="best" from="159453449#8" id="veh118_61200" to="320758139" type="veh_passenger"/>
    <trip depart="61306.84" departLane="best" from="256157278#1" id="veh119_61200" to="742727484#3" type="veh_passenger"/>
    <trip depart="61307.74" departLane="best" from="-658095569#2" id="veh120_61200" to="480276562" type="veh_passenger"/>
    <trip depart="61308.63" departLane="best" from="1036060565" id="veh121_61200" to="1042716327" type="veh_passenger"/>
    <trip depart="61309.53" departLane="best" from="479797313#7" id="veh122_61200" to="1038266651" type="veh_passenger"/>
    <trip depart="61310.43" departLane="best" from="1040925852" id="veh123_61200" to="490213894-AddedOffRampEdge" type="veh_passenger"/>
    <trip depart="61311.33" departLane="best" from="-248698670#2" id="veh124_61200" to="166563426#3" type="veh_passenger"/>
    <trip depart="61312.23" departLane="best" from="-255416142#1" id="veh125_61200" to="100646208" type="veh_passenger"/>
    <trip depart="61313.12" departLane="best" from="1036341358#1" id="veh126_61200" to="742727484#0" type="veh_passenger"/>
    <trip depart="61314.02" departLane="best" from="1042693361#1" id="veh127_61200" to="-480282281#0" type="veh_passenger"/>
    <trip depart="61314.92" departLane="best" from="622873931#7" id="veh128_61200" to="480250293#0" type="veh_passenger"/>
    <trip depart="61315.82" departLane="best" from="475316653#6" id="veh129_61200" to="854052897#4" type="veh_passenger"/>
    <trip depart="61316.71" departLane="best" from="479797277#2" id="veh130_61200" to="-100646260#1" type="veh_passenger"/>
    <trip depart="61317.61" departLane="best" from="618364867#1" id="veh131_61200" to="1038110939" type="veh_passenger"/>
    <trip depart="61318.51" departLane="best" from="479797310#0" id="veh132_61200" to="765449926#0" type="veh_passenger"/>
    <trip depart="61320.31" departLane="best" from="-475316645#2" id="veh134_61200" to="25931028#5" type="veh_passenger"/>
    <trip depart="61323" departLane="best" from="479621763#12" id="veh137_61200" to="1036099956#3" type="veh_passenger"/>
    <trip depart="61323.9" departLane="best" from="235427743#0" id="veh138_61200" to="696730624" type="veh_passenger"/>
    <trip depart="61324.8" departLane="best" from="623474397#0" id="veh139_61200" to="-379986688#2" type="veh_passenger"/>
    <trip depart="61325.69" departLane="best" from="159453472#4" id="veh140_61200" to="1036341355" type="veh_passenger"/>
    <trip depart="61326.59" departLane="best" from="-100646242#1" id="veh141_61200" to="491632371#2" type="veh_passenger"/>
    <trip depart="61327.49" departLane="best" from="479621774#2" id="veh142_61200" to="1036099953" type="veh_passenger"/>
    <trip depart="61328.39" departLane="best" from="489606090" id="veh143_61200" to="25931028#4" type="veh_passenger"/>
    <trip depart="61329.28" departLane="best" from="159455874#4" id="veh144_61200" to="-100646264#0" type="veh_passenger"/>
    <trip depart="61330.18" departLane="best" from="-255416153" id="veh145_61200" to="665451330#1" type="veh_passenger"/>
    <trip depart="61331.98" departLane="best" from="622873934#0" id="veh147_61200" to="320758130#1" type="veh_passenger"/>
    <trip depart="61332.88" departLane="best" from="-479816722#1" id="veh148_61200" to="-479797258#5" type="veh_passenger"/>
    <trip depart="61333.77" departLane="best" from="1040260533" id="veh149_61200" to="684128578#2" type="veh_passenger"/>
    <trip depart="61334.67" departLane="best" from="583797089#8" id="veh150_61200" to="625413762#3" type="veh_passenger"/>
    <trip depart="61335.57" departLane="best" from="684128578#0" id="veh151_61200" to="-775380332#4" type="veh_passenger"/>
    <trip depart="61337.36" departLane="best" from="491638583#6" id="veh153_61200" to="665451330#2" type="veh_passenger"/>
    <trip depart="61338.26" departLane="best" from="156148419#1" id="veh154_61200" to="475319371#0" type="veh_passenger"/>
    <trip depart="61340.06" departLane="best" from="625418511" id="veh156_61200" to="854040750" type="veh_passenger"/>
    <trip depart="61343.65" departLane="best" from="61163710#13" id="veh160_61200" to="625413783#2" type="veh_passenger"/>
    <trip depart="61345.44" departLane="best" from="538068340#1" id="veh162_61200" to="-479613101#1" type="veh_passenger"/>
    <trip depart="61347.24" departLane="best" from="100646256#1" id="veh164_61200" to="618371794" type="veh_passenger"/>
    <trip depart="61348.14" departLane="best" from="216060954#1" id="veh165_61200" to="1039133060" type="veh_passenger"/>
    <trip depart="61349.04" departLane="best" from="583797089#7" id="veh166_61200" to="1032987570#1" type="veh_passenger"/>
    <trip depart="61349.93" departLane="best" from="-1042698679" id="veh167_61200" to="-622804129#0" type="veh_passenger"/>
    <trip depart="61350.83" departLane="best" from="1041235840#0" id="veh168_61200" to="625413783#3" type="veh_passenger"/>
    <trip depart="61351.73" departLane="best" from="479751865#1" id="veh169_61200" to="1042728028#1" type="veh_passenger"/>
    <trip depart="61352.63" departLane="best" from="854052892-AddedOffRampEdge" id="veh170_61200" to="255416223#1" type="veh_passenger"/>
    <trip depart="61353.52" departLane="best" from="764267604" id="veh171_61200" to="-479621752#0" type="veh_passenger"/>
    <trip depart="61354.42" departLane="best" from="854001002#1" id="veh172_61200" to="-490165001#1" type="veh_passenger"/>
    <trip depart="61355.32" departLane="best" from="775122579#1" id="veh173_61200" to="1036114082" type="veh_passenger"/>
    <trip depart="61356.22" departLane="best" from="-475316653#0" id="veh174_61200" to="159453447#8" type="veh_passenger"/>
    <trip depart="61357.12" departLane="best" from="481854585" id="veh175_61200" to="1039159937" type="veh_passenger"/>
    <trip depart="61358.91" departLane="best" from="123423117#1" id="veh177_61200" to="320755661#1" type="veh_passenger"/>
    <trip depart="61359.81" departLane="best" from="1036338535" id="veh178_61200" to="480250299#1" type="veh_passenger"/>
    <trip depart="61360.71" departLane="best" from="-100646220#2" id="veh179_61200" to="742727470" type="veh_passenger"/>
    <trip depart="61362.5" departLane="best" from="489606090" id="veh181_61200" to="479797310#7" type="veh_passenger"/>
    <trip depart="61363.4" departLane="best" from="1042449169#1" id="veh182_61200" to="-255416229#2" type="veh_passenger"/>
    <trip depart="61365.2" departLane="best" from="1040882903" id="veh184_61200" to="623138417" type="veh_passenger"/>
    <trip depart="61366.09" departLane="best" from="480284576#1" id="veh185_61200" to="1038324580" type="veh_passenger"/>
    <trip depart="61366.99" departLane="best" from="1040591005" id="veh186_61200" to="145126347" type="veh_passenger"/>
    <trip depart="61367.89" departLane="best" from="156148404#3" id="veh187_61200" to="1036360487#5" type="veh_passenger"/>
    <trip depart="61368.79" departLane="best" from="-479621763#5" id="veh188_61200" to="156148404#2" type="veh_passenger"/>
    <trip depart="61369.69" departLane="best" from="764267605" id="veh189_61200" to="479797318#0" type="veh_passenger"/>
    <trip depart="61371.48" departLane="best" from="1039159935" id="veh191_61200" to="25931028#2" type="veh_passenger"/>
    <trip depart="61372.38" departLane="best" from="-100646217#0" id="veh192_61200" to="1036342983" type="veh_passenger"/>
    <trip depart="61373.28" departLane="best" from="159455874#8" id="veh193_61200" to="320758122#1" type="veh_passenger"/>
    <trip depart="61375.07" departLane="best" from="166563429#4" id="veh195_61200" to="100646217#3" type="veh_passenger"/>
    <trip depart="61375.97" departLane="best" from="224737854#0" id="veh196_61200" to="684135634#2" type="veh_passenger"/>
    <trip depart="61376.87" departLane="best" from="583797089#8" id="veh197_61200" to="-483726628#0" type="veh_passenger"/>
    <trip depart="61378.66" departLane="best" from="479621758#4" id="veh199_61200" to="1041187875" type="veh_passenger"/>
    <trip depart="61380.46" departLane="best" from="479797318#4" id="veh201_61200" to="1032262905#1" type="veh_passenger"/>
    <trip depart="61381.36" departLane="best" from="-623891515#1" id="veh202_61200" to="-159455892#4" type="veh_passenger"/>
    <trip depart="61383.15" departLane="best" from="623474399#3" id="veh204_61200" to="-255416251#2" type="veh_passenger"/>
    <trip depart="61384.05" departLane="best" from="159453447#12" id="veh205_61200" to="479621745#2" type="veh_passenger"/>
    <trip depart="61384.95" departLane="best" from="-622873929#0" id="veh206_61200" to="479816723#0" type="veh_passenger"/>
    <trip depart="61385.85" departLane="best" from="245763347#0" id="veh207_61200" to="1036052086#2" type="veh_passenger"/>
    <trip depart="61386.74" departLane="best" from="479797279" id="veh208_61200" to="-100646248#2" type="veh_passenger"/>
    <trip depart="61388.54" departLane="best" from="-475316645#2" id="veh210_61200" to="156148419#2" type="veh_passenger"/>
    <trip depart="61389.44" departLane="best" from="-483796488#0" id="veh211_61200" to="773876919#3" type="veh_passenger"/>
    <trip depart="61392.13" departLane="best" from="178774219#2" id="veh214_61200" to="61163710#1" type="veh_passenger"/>
    <trip depart="61393.93" departLane="best" from="323563821#2" id="veh216_61200" to="773159596#1" type="veh_passenger"/>
    <trip depart="61394.82" departLane="best" from="665453544" id="veh217_61200" to="47070283#3" type="veh_passenger"/>
    <trip depart="61395.72" departLane="best" from="480284575" id="veh218_61200" to="235424958#4" type="veh_passenger"/>
    <trip depart="61396.62" departLane="best" from="622873931#0" id="veh219_61200" to="25931028#2" type="veh_passenger"/>
    <trip depart="61397.52" departLane="best" from="665453553" id="veh220_61200" to="489629072#3" type="veh_passenger"/>
    <trip depart="61399.31" departLane="best" from="1036079534" id="veh222_61200" to="479621758#3" type="veh_passenger"/>
    <trip depart="61402.01" departLane="best" from="-255416209#0" id="veh225_61200" to="1036342983" type="veh_passenger"/>
    <trip depart="61403.8" departLane="best" from="25931909" id="veh227_61200" to="-479797345#1" type="veh_passenger"/>
    <trip depart="61406.5" departLane="best" from="156148419#4" id="veh230_61200" to="256157279" type="veh_passenger"/>
    <trip depart="61409.19" departLane="best" from="321073225#1" id="veh233_61200" to="479816717#0" type="veh_passenger"/>
    <trip depart="61410.09" departLane="best" from="625397297" id="veh234_61200" to="491628727#0" type="veh_passenger"/>
    <trip depart="61410.98" departLane="best" from="1042716324" id="veh235_61200" to="-100646252#0" type="veh_passenger"/>
    <trip depart="61411.88" departLane="best" from="1041544550#0" id="veh236_61200" to="490216931#1" type="veh_passenger"/>
    <trip depart="61412.78" departLane="best" from="623891513" id="veh237_61200" to="773159597#3" type="veh_passenger"/>
    <trip depart="61413.68" departLane="best" from="159453449#7" id="veh238_61200" to="490192688#3-AddedOnRampEdge" type="veh_passenger"/>
    <trip depart="61414.58" departLane="best" from="25931950-AddedOffRampEdge" id="veh239_61200" to="321073948" type="veh_passenger"/>
    <trip depart="61416.37" departLane="best" from="1041504064" id="veh241_61200" to="479797321" type="veh_passenger"/>
    <trip depart="61418.17" departLane="best" from="224737849#3" id="veh243_61200" to="-479797258#6" type="veh_passenger"/>
    <trip depart="61419.96" departLane="best" from="156148397#3" id="veh245_61200" to="25934381#0" type="veh_passenger"/>
    <trip depart="61420.86" departLane="best" from="-156148407#1" id="veh246_61200" to="479751358#0" type="veh_passenger"/>
    <trip depart="61421.76" departLane="best" from="-479797279" id="veh247_61200" to="166563429#5" type="veh_passenger"/>
    <trip depart="61422.66" departLane="best" from="-216060954#0" id="veh248_61200" to="1042449170" type="veh_passenger"/>
    <trip depart="61423.55" departLane="best" from="490718877#0" id="veh249_61200" to="1042449170" type="veh_passenger"/>
    <trip depart="61425.35" departLane="best" from="1036313338" id="veh251_61200" to="-25934385#0" type="veh_passenger"/>
    <trip depart="61426.25" departLane="best" from="-1039220886" id="veh252_61200" to="255416245#1" type="veh_passenger"/>
    <trip depart="61427.15" departLane="best" from="479797258#5" id="veh253_61200" to="538068339#5" type="veh_passenger"/>
    <trip depart="61428.04" departLane="best" from="479797271" id="veh254_61200" to="490216934#0" type="veh_passenger"/>
    <trip depart="61428.94" departLane="best" from="773159597#1" id="veh255_61200" to="-623891512" type="veh_passenger"/>
    <trip depart="61430.74" departLane="best" from="-479621763#11" id="veh257_61200" to="479797310#2" type="veh_passenger"/>
    <trip depart="61431.63" departLane="best" from="267535712" id="veh258_61200" to="100646248#1" type="veh_passenger"/>
    <trip depart="61432.53" departLane="best" from="480250287#2" id="veh259_61200" to="491628727#1" type="veh_passenger"/>
    <trip depart="61433.43" departLane="best" from="-480284570" id="veh260_61200" to="379986688#5" type="veh_passenger"/>
    <trip depart="61434.33" departLane="best" from="490165001#0" id="veh261_61200" to="-479621751#0" type="veh_passenger"/>
    <trip depart="61436.12" departLane="best" from="-475316652#3" id="veh263_61200" to="-159457890#2" type="veh_passenger"/>
    <trip depart="61437.02" departLane="best" from="1040882902#0" id="veh264_61200" to="479797318#0" type="veh_passenger"/>
    <trip depart="61437.92" departLane="best" from="774852739#0" id="veh265_61200" to="1042716327" type="veh_passenger"/>
    <trip depart="61439.71" departLane="best" from="479812143#3" id="veh267_61200" to="479613108#1" type="veh_passenger"/>
    <trip depart="61441.51" departLane="best" from="623891500#1" id="veh269_61200" to="321073251" type="veh_passenger"/>
    <trip depart="61442.41" departLane="best" from="491638590#0" id="veh270_61200" to="1041521601" type="veh_passenger"/>
    <trip depart="61443.31" departLane="best" from="159455874#5" id="veh271_61200" to="1042334799" type="veh_passenger"/>
    <trip depart="61444.2" departLane="best" from="248698674#2" id="veh272_61200" to="1041286369" type="veh_passenger"/>
    <trip depart="61446" departLane="best" from="-475316645#0" id="veh274_61200" to="774852739#1" type="veh_passenger"/>
    <trip depart="61446.9" departLane="best" from="479621763#6" id="veh275_61200" to="622804124#1" type="veh_passenger"/>
    <trip depart="61448.69" departLane="best" from="483726628#1" id="veh277_61200" to="775380332#4" type="veh_passenger"/>
    <trip depart="61449.59" departLane="best" from="1036341364#0" id="veh278_61200" to="61163785#3" type="veh_passenger"/>
    <trip depart="61450.49" departLane="best" from="25931907" id="veh279_61200" to="216060954#3" type="veh_passenger"/>
    <trip depart="61451.39" departLane="best" from="159455892#3" id="veh280_61200" to="481854596#2" type="veh_passenger"/>
    <trip depart="61452.28" departLane="best" from="1036341362#1" id="veh281_61200" to="623474399#2" type="veh_passenger"/>
    <trip depart="61453.18" departLane="best" from="622873931#0" id="veh282_61200" to="-320755658#2" type="veh_passenger"/>
    <trip depart="61454.08" departLane="best" from="665451328#4" id="veh283_61200" to="1036052086#2" type="veh_passenger"/>
    <trip depart="61454.98" departLane="best" from="216065940#2" id="veh284_61200" to="390383583#0" type="veh_passenger"/>
    <trip depart="61457.67" departLane="best" from="-856908280" id="veh287_61200" to="584750383#1" type="veh_passenger"/>
    <trip depart="61459.47" departLane="best" from="480250295#0" id="veh289_61200" to="1036341355" type="veh_passenger"/>
    <trip depart="61461.26" departLane="best" from="-256157283#0" id="veh291_61200" to="480284575" type="veh_passenger"/>
    <trip depart="61462.16" departLane="best" from="235427743#0" id="veh292_61200" to="491628725#0" type="veh_passenger"/>
    <trip depart="61463.06" departLane="best" from="479812143#3" id="veh293_61200" to="479751374#1" type="veh_passenger"/>
    <trip depart="61463.96" departLane="best" from="235436489#0" id="veh294_61200" to="583797089#2" type="veh_passenger"/>
    <trip depart="61464.85" departLane="best" from="-25934395#4" id="veh295_61200" to="100646269#0" type="veh_passenger"/>
    <trip depart="61465.75" departLane="best" from="479812147#0" id="veh296_61200" to="1039133060" type="veh_passenger"/>
    <trip depart="61467.55" departLane="best" from="25931028#4" id="veh298_61200" to="156148419#3" type="veh_passenger"/>
    <trip depart="61468.44" departLane="best" from="489924065" id="veh299_61200" to="1040929341" type="veh_passenger"/>
    <trip depart="61469.34" departLane="best" from="480250296#2" id="veh300_61200" to="1036341350#3" type="veh_passenger"/>
    <trip depart="61470.24" departLane="best" from="1036114082" id="veh301_61200" to="-479621763#9" type="veh_passenger"/>
    <trip depart="61471.14" departLane="best" from="-61163785#3" id="veh302_61200" to="-479621763#5" type="veh_passenger"/>
    <trip depart="61472.04" departLane="best" from="25931033" id="veh303_61200" to="491628725#3" type="veh_passenger"/>
    <trip depart="61472.93" departLane="best" from="-491638583#3" id="veh304_61200" to="100646242#1" type="veh_passenger"/>
    <trip depart="61475.63" departLane="best" from="1036360487#6" id="veh307_61200" to="-475316653#0" type="veh_passenger"/>
    <trip depart="61476.52" departLane="best" from="-622805764#1" id="veh308_61200" to="1032987570#1" type="veh_passenger"/>
    <trip depart="61479.22" departLane="best" from="854040751" id="veh311_61200" to="25931028#5" type="veh_passenger"/>
    <trip depart="61480.12" departLane="best" from="479816723#2" id="veh312_61200" to="-479797258#1" type="veh_passenger"/>
    <trip depart="61481.91" departLane="best" from="658130902" id="veh314_61200" to="26234533#2" type="veh_passenger"/>
    <trip depart="61482.81" departLane="best" from="224737850#2" id="veh315_61200" to="159453472#0" type="veh_passenger"/>
    <trip depart="61483.71" departLane="best" from="-490718877#2" id="veh316_61200" to="-248698662" type="veh_passenger"/>
    <trip depart="61485.5" departLane="best" from="618371797" id="veh318_61200" to="1046628053" type="veh_passenger"/>
    <trip depart="61486.4" departLane="best" from="-255416142#4" id="veh319_61200" to="479621745#1" type="veh_passenger"/>
    <trip depart="61488.2" departLane="best" from="267535712" id="veh321_61200" to="1039133060" type="veh_passenger"/>
    <trip depart="61489.09" departLane="best" from="994962121#3" id="veh322_61200" to="-479621763#11" type="veh_passenger"/>
    <trip depart="61489.99" departLane="best" from="491628725#1" id="veh323_61200" to="379986688#1" type="veh_passenger"/>
    <trip depart="61491.79" departLane="best" from="256157278#0" id="veh325_61200" to="159455875#2" type="veh_passenger"/>
    <trip depart="61492.69" departLane="best" from="166563429#5" id="veh326_61200" to="625413762#1" type="veh_passenger"/>
    <trip depart="61493.58" departLane="best" from="901285521" id="veh327_61200" to="1039133060" type="veh_passenger"/>
    <trip depart="61494.48" departLane="best" from="479621743#1" id="veh328_61200" to="379986768" type="veh_passenger"/>
    <trip depart="61495.38" departLane="best" from="489606084-AddedOnRampEdge" id="veh329_61200" to="765467137" type="veh_passenger"/>
    <trip depart="61496.28" departLane="best" from="-665451328#7" id="veh330_61200" to="-775599627#0" type="veh_passenger"/>
    <trip depart="61497.17" departLane="best" from="479797300#0" id="veh331_61200" to="-480282280" type="veh_passenger"/>
    <trip depart="61498.07" departLane="best" from="-480475790#0" id="veh332_61200" to="-256157278#0" type="veh_passenger"/>
    <trip depart="61498.97" departLane="best" from="-100646234" id="veh333_61200" to="159455875#2" type="veh_passenger"/>