<routes>
    <vType id="veh_passenger" vClass="passenger"/>
    <trip depart="50400" departLane="best" from="479751369#4" id="veh0_50400" to="-159455892#6" type="veh_passenger"/>
    <trip depart="50400.9" departLane="best" from="1036346145" id="veh1_50400" to="100646295#1" type="veh_passenger"/>
    <trip depart="50401.8" departLane="best" from="486825027#0" id="veh2_50400" to="479797313#7" type="veh_passenger"/>
    <trip depart="50402.69" departLane="best" from="665453544" id="veh3_50400" to="-320755659#0" type="veh_passenger"/>
    <trip depart="50404.49" departLane="best" from="100646220#1" id="veh5_50400" to="235424958#4" type="veh_passenger"/>
    <trip depart="50405.39" departLane="best" from="-155033028#1" id="veh6_50400" to="-623891502#0" type="veh_passenger"/>
    <trip depart="50406.28" departLane="best" from="479797258#4" id="veh7_50400" to="25931028#0" type="veh_passenger"/>
    <trip depart="50407.18" departLane="best" from="100646245#3" id="veh8_50400" to="321071861#2" type="veh_passenger"/>
    <trip depart="50408.98" departLane="best" from="1041521602" id="veh10_50400" to="-480276564" type="veh_passenger"/>
    <trip depart="50409.88" departLane="best" from="773876919#5" id="veh11_50400" to="1041187875-AddedOnRampEdge" type="veh_passenger"/>
    <trip depart="50411.67" departLane="best" from="623474397#3" id="veh13_50400" to="321073948" type="veh_passenger"/>
    <trip depart="50412.57" departLane="best" from="61163715#4" id="veh14_50400" to="481854591#1" type="veh_passenger"/>
    <trip depart="50413.47" departLane="best" from="25931033" id="veh15_50400" to="854001005#0" type="veh_passenger"/>
    <trip depart="50415.26" departLane="best" from="622809059#0" id="veh17_50400" to="475316653#4" type="veh_passenger"/>
    <trip depart="50416.16" departLane="best" from="625413783#2" id="veh18_50400" to="320755665" type="veh_passenger"/>
    <trip depart="50419.75" departLane="best" from="-379986746#0" id="veh22_50400" to="1036341357#0" type="veh_passenger"/>
    <trip depart="50421.55" departLane="best" from="1042693362#0" id="veh24_50400" to="-775380332#0" type="veh_passenger"/>
    <trip depart="50422.45" departLane="best" from="1036341360#1" id="veh25_50400" to="743386900" type="veh_passenger"/>
    <trip depart="50423.34" departLane="best" from="479797253#1" id="veh26_50400" to="379986751" type="veh_passenger"/>
    <trip depart="50425.14" departLane="best" from="-480252897#2" id="veh28_50400" to="1042449170" type="veh_passenger"/>
    <trip depart="50426.04" departLane="best" from="901285519#0" id="veh29_50400" to="479621763#4" type="veh_passenger"/>
    <trip depart="50427.83" departLane="best" from="623128861" id="veh31_50400" to="491638585" type="veh_passenger"/>
    <trip depart="50430.53" departLane="best" from="-775380332#5" id="veh34_50400" to="765449928" type="veh_passenger"/>
    <trip depart="50432.32" departLane="best" from="479797277#5" id="veh36_50400" to="1042716326" type="veh_passenger"/>
    <trip depart="50433.22" departLane="best" from="742718528#2" id="veh37_50400" to="166563426#4" type="veh_passenger"/>
    <trip depart="50434.12" departLane="best" from="1036341358#0" id="veh38_50400" to="1036060565" type="veh_passenger"/>
    <trip depart="50435.01" departLane="best" from="26234656#0" id="veh39_50400" to="1036099955" type="veh_passenger"/>
    <trip depart="50435.91" departLane="best" from="321073225#2" id="veh40_50400" to="684128578#0" type="veh_passenger"/>
    <trip depart="50436.81" departLane="best" from="156148402#2" id="veh41_50400" to="100646256#0" type="veh_passenger"/>
    <trip depart="50437.71" departLane="best" from="994962124#6" id="veh42_50400" to="235424974#1" type="veh_passenger"/>
    <trip depart="50439.5" departLane="best" from="-475316653#5" id="veh44_50400" to="479613108#2" type="veh_passenger"/>
    <trip depart="50440.4" departLane="best" from="583797089#1" id="veh45_50400" to="156148413#0" type="veh_passenger"/>
    <trip depart="50441.3" departLane="best" from="-248698662" id="veh46_50400" to="1042676039" type="veh_passenger"/>
    <trip depart="50442.2" departLane="best" from="994962124#3" id="veh47_50400" to="248698674#2" type="veh_passenger"/>
    <trip depart="50443.09" departLane="best" from="854001005#0" id="veh48_50400" to="625413762#3" type="veh_passenger"/>
    <trip depart="50443.99" departLane="best" from="-1036047409#0" id="veh49_50400" to="480284576#2" type="veh_passenger"/>
    <trip depart="50444.89" departLane="best" from="479797341#1-AddedOnRampEdge" id="veh50_50400" to="255416224#2" type="veh_passenger"/>
    <trip depart="50445.79" departLane="best" from="1036341360#0" id="veh51_50400" to="479621763#7" type="veh_passenger"/>
    <trip depart="50446.69" departLane="best" from="-475319370" id="veh52_50400" to="159453447#8" type="veh_passenger"/>
    <trip depart="50447.58" departLane="best" from="178774212#0" id="veh53_50400" to="773159597#3" type="veh_passenger"/>
    <trip depart="50449.38" departLane="best" from="248698668#12" id="veh55_50400" to="-490165001#1" type="veh_passenger"/>
    <trip depart="50451.17" departLane="best" from="1039159932#1" id="veh57_50400" to="479621763#11" type="veh_passenger"/>
    <trip depart="50452.97" departLane="best" from="491462355" id="veh59_50400" to="255416245#1" type="veh_passenger"/>
    <trip depart="50453.87" departLane="best" from="491638583#0" id="veh60_50400" to="255416142#2" type="veh_passenger"/>
    <trip depart="50454.77" departLane="best" from="-100646217#1" id="veh61_50400" to="1040911960" type="veh_passenger"/>
    <trip depart="50459.26" departLane="best" from="-256157283#0" id="veh66_50400" to="216065938#0" type="veh_passenger"/>
    <trip depart="50460.15" departLane="best" from="-248698668#10" id="veh67_50400" to="491628725#1-AddedOffRampEdge" type="veh_passenger"/>
    <trip depart="50461.05" departLane="best" from="491628725#1-AddedOffRampEdge" id="veh68_50400" to="-479797283#1" type="veh_passenger"/>
    <trip depart="50461.95" departLane="best" from="224737854#2" id="veh69_50400" to="25931028#3" type="veh_passenger"/>
    <trip depart="50464.64" departLane="best" from="25931909" id="veh72_50400" to="481854591#1" type="veh_passenger"/>
    <trip depart="50465.54" departLane="best" from="-625413768#3" id="veh73_50400" to="1039159932#1" type="veh_passenger"/>
    <trip depart="50466.44" departLane="best" from="994962124#2" id="veh74_50400" to="479797239#0" type="veh_passenger"/>
    <trip depart="50468.23" departLane="best" from="-479621745#7" id="veh76_50400" to="1032262905#1" type="veh_passenger"/>
    <trip depart="50469.13" departLane="best" from="1041504065" id="veh77_50400" to="321071861#1" type="veh_passenger"/>
    <trip depart="50470.03" departLane="best" from="1032665742" id="veh78_50400" to="100646260#0" type="veh_passenger"/>
    <trip depart="50470.93" departLane="best" from="-248698668#8" id="veh79_50400" to="479621745#7" type="veh_passenger"/>
    <trip depart="50472.72" departLane="best" from="625413768#2" id="veh81_50400" to="-255416245#0" type="veh_passenger"/>
    <trip depart="50474.52" departLane="best" from="-994875416" id="veh83_50400" to="-479797308" type="veh_passenger"/>
    <trip depart="50475.42" departLane="best" from="742727484#1" id="veh84_50400" to="26234533#0" type="veh_passenger"/>
    <trip depart="50476.31" departLane="best" from="224737852#6" id="veh85_50400" to="538068606-AddedOffRampEdge" type="veh_passenger"/>
    <trip depart="50477.21" departLane="best" from="-320758120" id="veh86_50400" to="156148432#0" type="veh_passenger"/>
    <trip depart="50479.01" departLane="best" from="481854588#3" id="veh88_50400" to="479797313#0" type="veh_passenger"/>
    <trip depart="50480.8" departLane="best" from="156148407#0" id="veh90_50400" to="1041235840#1-AddedOffRampEdge" type="veh_passenger"/>
    <trip depart="50481.7" departLane="best" from="625413783#2" id="veh91_50400" to="1036062887" type="veh_passenger"/>
    <trip depart="50482.6" departLane="best" from="-61163715#2" id="veh92_50400" to="159455874#9" type="veh_passenger"/>
    <trip depart="50483.5" departLane="best" from="159453472#0" id="veh93_50400" to="1036341357#1" type="veh_passenger"/>
    <trip depart="50485.29" departLane="best" from="166563429#6" id="veh95_50400" to="625413766#0" type="veh_passenger"/>
    <trip depart="50487.09" departLane="best" from="996026061#1" id="veh97_50400" to="622873931#7" type="veh_passenger"/>
    <trip depart="50487.99" departLane="best" from="854001000#1" id="veh98_50400" to="742727471" type="veh_passenger"/>
    <trip depart="50489.78" departLane="best" from="235427270" id="veh100_50400" to="100646217#3" type="veh_passenger"/>
    <trip depart="50492.47" departLane="best" from="1036341358#1" id="veh103_50400" to="538068606-AddedOffRampEdge" type="veh_passenger"/>
    <trip depart="50493.37" departLane="best" from="178774217#1" id="veh104_50400" to="156148417" type="veh_passenger"/>
    <trip depart="50495.17" departLane="best" from="25934395#5" id="veh106_50400" to="480283416#1" type="veh_passenger"/>
    <trip depart="50496.07" departLane="best" from="-480250296#0" id="veh107_50400" to="1036360487#6" type="veh_passenger"/>
    <trip depart="50496.96" departLane="best" from="854001000#0" id="veh108_50400" to="320758120" type="veh_passenger"/>
    <trip depart="50497.86" departLane="best" from="25931909" id="veh109_50400" to="490192688#5" type="veh_passenger"/>
    <trip depart="50498.76" departLane="best" from="-234517427#4" id="veh110_50400" to="320758139" type="veh_passenger"/>
    <trip depart="50499.66" departLane="best" from="248698670#0" id="veh111_50400" to="623891500#1" type="veh_passenger"/>
    <trip depart="50500.55" departLane="best" from="-480250299#0" id="veh112_50400" to="774852739#1" type="veh_passenger"/>
    <trip depart="50502.35" departLane="best" from="323563821#1" id="veh114_50400" to="479797313#4" type="veh_passenger"/>
    <trip depart="50505.04" departLane="best" from="323563821#0" id="veh117_50400" to="475316658#1" type="veh_passenger"/>
    <trip depart="50505.94" departLane="best" from="159453449#8" id="veh118_50400" to="320758139" type="veh_passenger"/>
    <trip depart="50506.84" departLane="best" from="256157278#1" id="veh119_50400" to="742727484#3" type="veh_passenger"/>
    <trip depart="50507.74" departLane="best" from="-658095569#2" id="veh120_50400" to="480276562" type="veh_passenger"/>
    <trip depart="50508.63" departLane="best" from="1036060565" id="veh121_50400" to="1042716327" type="veh_passenger"/>
    <trip depart="50509.53" departLane="best" from="479797313#7" id="veh122_50400" to="1038266651" type="veh_passenger"/>
    <trip depart="50510.43" departLane="best" from="1040925852" id="veh123_50400" to="490213894-AddedOffRampEdge" type="veh_passenger"/>
    <trip depart="50511.33" departLane="best" from="-248698670#2" id="veh124_50400" to="166563426#3" type="veh_passenger"/>
    <trip depart="50512.23" departLane="best" from="-255416142#1" id="veh125_50400" to="100646208" type="veh_passenger"/>
    <trip depart="50513.12" departLane="best" from="1036341358#1" id="veh126_50400" to="742727484#0" type="veh_passenger"/>
    <trip depart="50514.02" departLane="best" from="1042693361#1" id="veh127_50400" to="-480282281#0" type="veh_passenger"/>
    <trip depart="50514.92" departLane="best" from="622873931#7" id="veh128_50400" to="480250293#0" type="veh_passenger"/>
    <trip depart="50515.82" departLane="best" from="475316653#6" id="veh129_50400" to="854052897#4" type="veh_passenger"/>
    <trip depart="50516.71" departLane="best" from="479797277#2" id="veh130_50400" to="-100646260#1" type="veh_passenger"/>
    <trip depart="50517.61" departLane="best" from="618364867#1" id="veh131_50400" to="1038110939" type="veh_passenger"/>
    <trip depart="50518.51" departLane="best" from="479797310#0" id="veh132_50400" to="765449926#0" type="veh_passenger"/>
    <trip depart="50520.31" departLane="best" from="-475316645#2" id="veh134_50400" to="25931028#5" type="veh_passenger"/>
    <trip depart="50523" departLane="best" from="479621763#12" id="veh137_50400" to="1036099956#3" type="veh_passenger"/>
    <trip depart="50523.9" departLane="best" from="235427743#0" id="veh138_50400" to="696730624" type="veh_passenger"/>
    <trip depart="50524.8" departLane="best" from="623474397#0" id="veh139_50400" to="-379986688#2" type="veh_passenger"/>
    <trip depart="50525.69" departLane="best" from="159453472#4" id="veh140_50400" to="1036341355" type="veh_passenger"/>
    <trip depart="50526.59" departLane="best" from="-100646242#1" id="veh141_50400" to="491632371#2" type="veh_passenger"/>
    <trip depart="50527.49" departLane="best" from="479621774#2" id="veh142_50400" to="1036099953" type="veh_passenger"/>
    <trip depart="50528.39" departLane="best" from="489606090" id="veh143_50400" to="25931028#4" type="veh_passenger"/>
    <trip depart="50529.28" departLane="best" from="159455874#4" id="veh144_50400" to="-100646264#0" type="veh_passenger"/>
    <trip depart="50530.18" departLane="best" from="-255416153" id="veh145_50400" to="665451330#1" type="veh_passenger"/>
    <trip depart="50531.98" departLane="best" from="622873934#0" id="veh147_50400" to="320758130#1" type="veh_passenger"/>
    <trip depart="50532.88" departLane="best" from="-479816722#1" id="veh148_50400" to="-479797258#5" type="veh_passenger"/>
    <trip depart="50533.77" departLane="best" from="1040260533" id="veh149_50400" to="684128578#2" type="veh_passenger"/>
    <trip depart="50534.67" departLane="best" from="583797089#8" id="veh150_50400" to="625413762#3" type="veh_passenger"/>
    <trip depart="50535.57" departLane="best" from="684128578#0" id="veh151_50400" to="-775380332#4" type="veh_passenger"/>
    <trip depart="50537.36" departLane="best" from="491638583#6" id="veh153_50400" to="665451330#2" type="veh_passenger"/>
    <trip depart="50538.26" departLane="best" from="156148419#1" id="veh154_50400" to="475319371#0" type="veh_passenger"/>
    <trip depart="50540.06" departLane="best" from="625418511" id="veh156_50400" to="854040750" type="veh_passenger"/>
    <trip depart="50543.65" departLane="best" from="61163710#13" id="veh160_50400" to="625413783#2" type="veh_passenger"/>
    <trip depart="50545.44" departLane="best" from="538068340#1" id="veh162_50400" to="-479613101#1" type="veh_passenger"/>
    <trip depart="50547.24" departLane="best" from="100646256#1" id="veh164_50400" to="618371794" type="veh_passenger"/>
    <trip depart="50548.14" departLane="best" from="216060954#1" id="veh165_50400" to="1039133060" type="veh_passenger"/>
    <trip depart="50549.04" departLane="best" from="583797089#7" id="veh166_50400" to="1032987570#1" type="veh_passenger"/>
    <trip depart="50549.93" departLane="best" from="-1042698679" id="veh167_50400" to="-622804129#0" type="veh_passenger"/>
    <trip depart="50550.83" departLane="best" from="1041235840#0" id="veh168_50400" to="625413783#3" type="veh_passenger"/>
    <trip depart="50551.73" departLane="best" from="479751865#1" id="veh169_50400" to="1042728028#1" type="veh_passenger"/>
    <trip depart="50552.63" departLane="best" from="854052892-AddedOffRampEdge" id="veh170_50400" to="255416223#1" type="veh_passenger"/>
    <trip depart="50553.52" departLane="best" from="764267604" id="veh171_50400" to="-479621752#0" type="veh_passenger"/>
    <trip depart="50554.42" departLane="best" from="854001002#1" id="veh172_50400" to="-490165001#1" type="veh_passenger"/>
    <trip depart="50555.32" departLane="best" from="775122579#1" id="veh173_50400" to="1036114082" type="veh_passenger"/>
    <trip depart="50556.22" departLane="best" from="-475316653#0" id="veh174_50400" to="159453447#8" type="veh_passenger"/>
    <trip depart="50557.12" departLane="best" from="481854585" id="veh175_50400" to="1039159937" type="veh_passenger"/>
    <trip depart="50558.91" departLane="best" from="123423117#1" id="veh177_50400" to="320755661#1" type="veh_passenger"/>
    <trip depart="50559.81" departLane="best" from="1036338535" id="veh178_50400" to="480250299#1" type="veh_passenger"/>
    <trip depart="50560.71" departLane="best" from="-100646220#2" id="veh179_50400" to="742727470" type="veh_passenger"/>
    <trip depart="50562.5" departLane="best" from="489606090" id="veh181_50400" to="479797310#7" type="veh_passenger"/>
    <trip depart="50563.4" departLane="best" from="1042449169#1" id="veh182_50400" to="-255416229#2" type="veh_passenger"/>
    <trip depart="50565.2" departLane="best" from="1040882903" id="veh184_50400" to="623138417" type="veh_passenger"/>
    <trip depart="50566.09" departLane="best" from="480284576#1" id="veh185_50400" to="1038324580" type="veh_passenger"/>
    <trip depart="50566.99" departLane="best" from="1040591005" id="veh186_50400" to="145126347" type="veh_passenger"/>
    <trip depart="50567.89" departLane="best" from="156148404#3" id="veh187_50400" to="1036360487#5" type="veh_passenger"/>
    <trip depart="50568.79" departLane="best" from="-479621763#5" id="veh188_50400" to="156148404#2" type="veh_passenger"/>
    <trip depart="50569.69" departLane="best" from="764267605" id="veh189_50400" to="479797318#0" type="veh_passenger"/>
    <trip depart="50571.48" departLane="best" from="1039159935" id="veh191_50400" to="25931028#2" type="veh_passenger"/>
    <trip depart="50572.38" departLane="best" from="-100646217#0" id="veh192_50400" to="1036342983" type="veh_passenger"/>
    <trip depart="50573.28" departLane="best" from="159455874#8" id="veh193_50400" to="320758122#1" type="veh_passenger"/>
    <trip depart="50575.07" departLane="best" from="166563429#4" id="veh195_50400" to="100646217#3" type="veh_passenger"/>
    <trip depart="50575.97" departLane="best" from="224737854#0" id="veh196_50400" to="684135634#2" type="veh_passenger"/>
    <trip depart="50576.87" departLane="best" from="583797089#8" id="veh197_50400" to="-483726628#0" type="veh_passenger"/>
    <trip depart="50578.66" departLane="best" from="479621758#4" id="veh199_50400" to="1041187875" type="veh_passenger"/>
    <trip depart="50580.46" departLane="best" from="479797318#4" id="veh201_50400" to="1032262905#1" type="veh_passenger"/>
    <trip depart="50581.36" departLane="best" from="-623891515#1" id="veh202_50400" to="-159455892#4" type="veh_passenger"/>
    <trip depart="50583.15" departLane="best" from="623474399#3" id="veh204_50400" to="-255416251#2" type="veh_passenger"/>
    <trip depart="50584.05" departLane="best" from="159453447#12" id="veh205_50400" to="479621745#2" type="veh_passenger"/>
    <trip depart="50584.95" departLane="best" from="-622873929#0" id="veh206_50400" to="479816723#0" type="veh_passenger"/>
    <trip depart="50585.85" departLane="best" from="245763347#0" id="veh207_50400" to="1036052086#2" type="veh_passenger"/>
    <trip depart="50586.74" departLane="best" from="479797279" id="veh208_50400" to="-100646248#2" type="veh_passenger"/>
    <trip depart="50588.54" departLane="best" from="-475316645#2" id="veh210_50400" to="156148419#2" type="veh_passenger"/>
    <trip depart="50589.44" departLane="best" from="-483796488#0" id="veh211_50400" to="773876919#3" type="veh_passenger"/>
    <trip depart="50592.13" departLane="best" from="178774219#2" id="veh214_50400" to="61163710#1" type="veh_passenger"/>
    <trip depart="50593.93" departLane="best" from="323563821#2" id="veh216_50400" to="773159596#1" type="veh_passenger"/>
    <trip depart="50594.82" departLane="best" from="665453544" id="veh217_50400" to="47070283#3" type="veh_passenger"/>
    <trip depart="50595.72" departLane="best" from="480284575" id="veh218_50400" to="235424958#4" type="veh_passenger"/>
    <trip depart="50596.62" departLane="best" from="622873931#0" id="veh219_50400" to="25931028#2" type="veh_passenger"/>
    <trip depart="50597.52" departLane="best" from="665453553" id="veh220_50400" to="489629072#3" type="veh_passenger"/>
    <trip depart="50599.31" departLane="best" from="1036079534" id="veh222_50400" to="479621758#3" type="veh_passenger"/>
    <trip depart="50602.01" departLane="best" from="-255416209#0" id="veh225_50400" to="1036342983" type="veh_passenger"/>
    <trip depart="50603.8" departLane="best" from="25931909" id="veh227_50400" to="-479797345#1" type="veh_passenger"/>
    <trip depart="50606.5" departLane="best" from="156148419#4" id="veh230_50400" to="256157279" type="veh_passenger"/>
    <trip depart="50609.19" departLane="best" from="321073225#1" id="veh233_50400" to="479816717#0" type="veh_passenger"/>
    <trip depart="50610.09" departLane="best" from="625397297" id="veh234_50400" to="491628727#0" type="veh_passenger"/>
    <trip depart="50610.98" departLane="best" from="1042716324" id="veh235_50400" to="-100646252#0" type="veh_passenger"/>
    <trip depart="50611.88" departLane="best" from="1041544550#0" id="veh236_50400" to="490216931#1" type="veh_passenger"/>
    <trip depart="50612.78" departLane="best" from="623891513" id="veh237_50400" to="773159597#3" type="veh_passenger"/>
    <trip depart="50613.68" departLane="best" from="159453449#7" id="veh238_50400" to="490192688#3-AddedOnRampEdge" type="veh_passenger"/>
    <trip depart="50614.58" departLane="best" from="25931950-AddedOffRampEdge" id="veh239_50400" to="321073948" type="veh_passenger"/>
    <trip depart="50616.37" departLane="best" from="1041504064" id="veh241_50400" to="479797321" type="veh_passenger"/>
    <trip depart="50618.17" departLane="best" from="224737849#3" id="veh243_50400" to="-479797258#6" type="veh_passenger"/>
    <trip depart="50619.96" departLane="best" from="156148397#3" id="veh245_50400" to="25934381#0" type="veh_passenger"/>
    <trip depart="50620.86" departLane="best" from="-156148407#1" id="veh246_50400" to="479751358#0" type="veh_passenger"/>
    <trip depart="50621.76" departLane="best" from="-479797279" id="veh247_50400" to="166563429#5" type="veh_passenger"/>
    <trip depart="50622.66" departLane="best" from="-216060954#0" id="veh248_50400" to="1042449170" type="veh_passenger"/>
    <trip depart="50623.55" departLane="best" from="490718877#0" id="veh249_50400" to="1042449170" type="veh_passenger"/>
    <trip depart="50625.35" departLane="best" from="1036313338" id="veh251_50400" to="-25934385#0" type="veh_passenger"/>
    <trip depart="50626.25" departLane="best" from="-1039220886" id="veh252_50400" to="255416245#1" type="veh_passenger"/>
    <trip depart="50627.15" departLane="best" from="479797258#5" id="veh253_50400" to="538068339#5" type="veh_passenger"/>
    <trip depart="50628.04" departLane="best" from="479797271" id="veh254_50400" to="490216934#0" type="veh_passenger"/>
    <trip depart="50628.94" departLane="best" from="773159597#1" id="veh255_50400" to="-623891512" type="veh_passenger"/>
    <trip depart="50630.74" departLane="best" from="-479621763#11" id="veh257_50400" to="479797310#2" type="veh_passenger"/>
    <trip depart="50631.63" departLane="best" from="267535712" id="veh258_50400" to="100646248#1" type="veh_passenger"/>
    <trip depart="50632.53" departLane="best" from="480250287#2" id="veh259_50400" to="491628727#1" type="veh_passenger"/>
    <trip depart="50633.43" departLane="best" from="-480284570" id="veh260_50400" to="379986688#5" type="veh_passenger"/>
    <trip depart="50634.33" departLane="best" from="490165001#0" id="veh261_50400" to="-479621751#0" type="veh_passenger"/>
    <trip depart="50636.12" departLane="best" from="-475316652#3" id="veh263_50400" to="-159457890#2" type="veh_passenger"/>
    <trip depart="50637.02" departLane="best" from="1040882902#0" id="veh264_50400" to="479797318#0" type="veh_passenger"/>
    <trip depart="50637.92" departLane="best" from="774852739#0" id="veh265_50400" to="1042716327" type="veh_passenger"/>
    <trip depart="50639.71" departLane="best" from="479812143#3" id="veh267_50400" to="479613108#1" type="veh_passenger"/>
    <trip depart="50641.51" departLane="best" from="623891500#1" id="veh269_50400" to="321073251" type="veh_passenger"/>
    <trip depart="50642.41" departLane="best" from="491638590#0" id="veh270_50400" to="1041521601" type="veh_passenger"/>
    <trip depart="50643.31" departLane="best" from="159455874#5" id="veh271_50400" to="1042334799" type="veh_passenger"/>
    <trip depart="50644.2" departLane="best" from="248698674#2" id="veh272_50400" to="1041286369" type="veh_passenger"/>
    <trip depart="50646" departLane="best" from="-475316645#0" id="veh274_50400" to="774852739#1" type="veh_passenger"/>
    <trip depart="50646.9" departLane="best" from="479621763#6" id="veh275_50400" to="622804124#1" type="veh_passenger"/>
    <trip depart="50648.69" departLane="best" from="483726628#1" id="veh277_50400" to="775380332#4" type="veh_passenger"/>
    <trip depart="50649.59" departLane="best" from="1036341364#0" id="veh278_50400" to="61163785#3" type="veh_passenger"/>
    <trip depart="50650.49" departLane="best" from="25931907" id="veh279_50400" to="216060954#3" type="veh_passenger"/>
    <trip depart="50651.39" departLane="best" from="159455892#3" id="veh280_50400" to="481854596#2" type="veh_passenger"/>
    <trip depart="50652.28" departLane="best" from="1036341362#1" id="veh281_50400" to="623474399#2" type="veh_passenger"/>
    <trip depart="50653.18" departLane="best" from="622873931#0" id="veh282_50400" to="-320755658#2" type="veh_passenger"/>
    <trip depart="50654.08" departLane="best" from="665451328#4" id="veh283_50400" to="1036052086#2" type="veh_passenger"/>
    <trip depart="50654.98" departLane="best" from="216065940#2" id="veh284_50400" to="390383583#0" type="veh_passenger"/>
    <trip depart="50657.67" departLane="best" from="-856908280" id="veh287_50400" to="584750383#1" type="veh_passenger"/>
    <trip depart="50659.47" departLane="best" from="480250295#0" id="veh289_50400" to="1036341355" type="veh_passenger"/>
    <trip depart="50661.26" departLane="best" from="-256157283#0" id="veh291_50400" to="480284575" type="veh_passenger"/>
    <trip depart="50662.16" departLane="best" from="235427743#0" id="veh292_50400" to="491628725#0" type="veh_passenger"/>
    <trip depart="50663.06" departLane="best" from="479812143#3" id="veh293_50400" to="479751374#1" type="veh_passenger"/>
    <trip depart="50663.96" departLane="best" from="235436489#0" id="veh294_50400" to="583797089#2" type="veh_passenger"/>
    <trip depart="50664.85" departLane="best" from="-25934395#4" id="veh295_50400" to="100646269#0" type="veh_passenger"/>
    <trip depart="50665.75" departLane="best" from="479812147#0" id="veh296_50400" to="1039133060" type="veh_passenger"/>
    <trip depart="50667.55" departLane="best" from="25931028#4" id="veh298_50400" to="156148419#3" type="veh_passenger"/>
    <trip depart="50668.44" departLane="best" from="489924065" id="veh299_50400" to="1040929341" type="veh_passenger"/>
    <trip depart="50669.34" departLane="best" from="480250296#2" id="veh300_50400" to="1036341350#3" type="veh_passenger"/>
    <trip depart="50670.24" departLane="best" from="1036114082" id="veh301_50400" to="-479621763#9" type="veh_passenger"/>
    <trip depart="50671.14" departLane="best" from="-61163785#3" id="veh302_50400" to="-479621763#5" type="veh_passenger"/>
    <trip depart="50672.04" departLane="best" from="25931033" id="veh303_50400" to="491628725#3" type="veh_passenger"/>
    <trip depart="50672.93" departLane="best" from="-491638583#3" id="veh304_50400" to="100646242#1" type="veh_passenger"/>
    <trip depart="50675.63" departLane="best" from="1036360487#6" id="veh307_50400" to="-475316653#0" type="veh_passenger"/>
    <trip depart="50676.52" departLane="best" from="-622805764#1" id="veh308_50400" to="1032987570#1" type="veh_passenger"/>
    <trip depart="50679.22" departLane="best" from="854040751" id="veh311_50400" to="25931028#5" type="veh_passenger"/>
    <trip depart="50680.12" departLane="best" from="479816723#2" id="veh312_50400" to="-479797258#1" type="veh_passenger"/>
    <trip depart="50681.91" departLane="best" from="658130902" id="veh314_50400" to="26234533#2" type="veh_passenger"/>
    <trip depart="50682.81" departLane="best" from="224737850#2" id="veh315_50400" to="159453472#0" type="veh_passenger"/>
    <trip depart="50683.71" departLane="best" from="-490718877#2" id="veh316_50400" to="-248698662" type="veh_passenger"/>
    <trip depart="50685.5" departLane="best" from="618371797" id="veh318_50400" to="1046628053" type="veh_passenger"/>
    <trip depart="50686.4" departLane="best" from="-255416142#4" id="veh319_50400" to="479621745#1" type="veh_passenger"/>
    <trip depart="50688.2" departLane="best" from="267535712" id="veh321_50400" to="1039133060" type="veh_passenger"/>
    <trip depart="50689.09" departLane="best" from="994962121#3" id="veh322_50400" to="-479621763#11" type="veh_passenger"/>
    <trip depart="50689.99" departLane="best" from="491628725#1" id="veh323_50400" to="379986688#1" type="veh_passenger"/>
    <trip depart="50691.79" departLane="best" from="256157278#0" id="veh325_50400" to="159455875#2" type="veh_passenger"/>
    <trip depart="50692.69" departLane="best" from="166563429#5" id="veh326_50400" to="625413762#1" type="veh_passenger"/>
    <trip depart="50693.58" departLane="best" from="901285521" id="veh327_50400" to="1039133060" type="veh_passenger"/>
    <trip depart="50694.48" departLane="best" from="479621743#1" id="veh328_50400" to="379986768" type="veh_passenger"/>
    <trip depart="50695.38" departLane="best" from="489606084-AddedOnRampEdge" id="veh329_50400" to="765467137" type="veh_passenger"/>
    <trip depart="50696.28" departLane="best" from="-665451328#7" id="veh330_50400" to="-775599627#0" type="veh_passenger"/>
    <trip depart="50697.17" departLane="best" from="479797300#0" id="veh331_50400" to="-480282280" type="veh_passenger"/>
    <trip depart="50698.07" departLane="best" from="-480475790#0" id="veh332_50400" to="-256157278#0" type="veh_passenger"/>
    <trip depart="50698.97" departLane="best" from="-100646234" id="veh333_50400" to="159455875#2" type="veh_passenger"/>