<routes>
    <vType id="veh_passenger" vClass="passenger"/>
    <trip depart="46800" departLane="best" from="479751369#4" id="veh0_46800" to="-159455892#6" type="veh_passenger"/>
    <trip depart="46800.9" departLane="best" from="1036346145" id="veh1_46800" to="100646295#1" type="veh_passenger"/>
    <trip depart="46801.8" departLane="best" from="486825027#0" id="veh2_46800" to="479797313#7" type="veh_passenger"/>
    <trip depart="46802.69" departLane="best" from="665453544" id="veh3_46800" to="-320755659#0" type="veh_passenger"/>
    <trip depart="46804.49" departLane="best" from="100646220#1" id="veh5_46800" to="235424958#4" type="veh_passenger"/>
    <trip depart="46805.39" departLane="best" from="-155033028#1" id="veh6_46800" to="-623891502#0" type="veh_passenger"/>
    <trip depart="46806.28" departLane="best" from="479797258#4" id="veh7_46800" to="25931028#0" type="veh_passenger"/>
    <trip depart="46807.18" departLane="best" from="100646245#3" id="veh8_46800" to="321071861#2" type="veh_passenger"/>
    <trip depart="46808.98" departLane="best" from="1041521602" id="veh10_46800" to="-480276564" type="veh_passenger"/>
    <trip depart="46809.88" departLane="best" from="773876919#5" id="veh11_46800" to="1041187875-AddedOnRampEdge" type="veh_passenger"/>
    <trip depart="46811.67" departLane="best" from="623474397#3" id="veh13_46800" to="321073948" type="veh_passenger"/>
    <trip depart="46812.57" departLane="best" from="61163715#4" id="veh14_46800" to="481854591#1" type="veh_passenger"/>
    <trip depart="46813.47" departLane="best" from="25931033" id="veh15_46800" to="854001005#0" type="veh_passenger"/>
    <trip depart="46815.26" departLane="best" from="622809059#0" id="veh17_46800" to="475316653#4" type="veh_passenger"/>
    <trip depart="46816.16" departLane="best" from="625413783#2" id="veh18_46800" to="320755665" type="veh_passenger"/>
    <trip depart="46819.75" departLane="best" from="-379986746#0" id="veh22_46800" to="1036341357#0" type="veh_passenger"/>
    <trip depart="46821.55" departLane="best" from="1042693362#0" id="veh24_46800" to="-775380332#0" type="veh_passenger"/>
    <trip depart="46822.45" departLane="best" from="1036341360#1" id="veh25_46800" to="743386900" type="veh_passenger"/>
    <trip depart="46823.34" departLane="best" from="479797253#1" id="veh26_46800" to="379986751" type="veh_passenger"/>
    <trip depart="46825.14" departLane="best" from="-480252897#2" id="veh28_46800" to="1042449170" type="veh_passenger"/>
    <trip depart="46826.04" departLane="best" from="901285519#0" id="veh29_46800" to="479621763#4" type="veh_passenger"/>
    <trip depart="46827.83" departLane="best" from="623128861" id="veh31_46800" to="491638585" type="veh_passenger"/>
    <trip depart="46830.53" departLane="best" from="-775380332#5" id="veh34_46800" to="765449928" type="veh_passenger"/>
    <trip depart="46832.32" departLane="best" from="479797277#5" id="veh36_46800" to="1042716326" type="veh_passenger"/>
    <trip depart="46833.22" departLane="best" from="742718528#2" id="veh37_46800" to="166563426#4" type="veh_passenger"/>
    <trip depart="46834.12" departLane="best" from="1036341358#0" id="veh38_46800" to="1036060565" type="veh_passenger"/>
    <trip depart="46835.01" departLane="best" from="26234656#0" id="veh39_46800" to="1036099955" type="veh_passenger"/>
    <trip depart="46835.91" departLane="best" from="321073225#2" id="veh40_46800" to="684128578#0" type="veh_passenger"/>
    <trip depart="46836.81" departLane="best" from="156148402#2" id="veh41_46800" to="100646256#0" type="veh_passenger"/>
    <trip depart="46837.71" departLane="best" from="994962124#6" id="veh42_46800" to="235424974#1" type="veh_passenger"/>
    <trip depart="46839.5" departLane="best" from="-475316653#5" id="veh44_46800" to="479613108#2" type="veh_passenger"/>
    <trip depart="46840.4" departLane="best" from="583797089#1" id="veh45_46800" to="156148413#0" type="veh_passenger"/>
    <trip depart="46841.3" departLane="best" from="-248698662" id="veh46_46800" to="1042676039" type="veh_passenger"/>
    <trip depart="46842.2" departLane="best" from="994962124#3" id="veh47_46800" to="248698674#2" type="veh_passenger"/>
    <trip depart="46843.09" departLane="best" from="854001005#0" id="veh48_46800" to="625413762#3" type="veh_passenger"/>
    <trip depart="46843.99" departLane="best" from="-1036047409#0" id="veh49_46800" to="480284576#2" type="veh_passenger"/>
    <trip depart="46844.89" departLane="best" from="479797341#1-AddedOnRampEdge" id="veh50_46800" to="255416224#2" type="veh_passenger"/>
    <trip depart="46845.79" departLane="best" from="1036341360#0" id="veh51_46800" to="479621763#7" type="veh_passenger"/>
    <trip depart="46846.69" departLane="best" from="-475319370" id="veh52_46800" to="159453447#8" type="veh_passenger"/>
    <trip depart="46847.58" departLane="best" from="178774212#0" id="veh53_46800" to="773159597#3" type="veh_passenger"/>
    <trip depart="46849.38" departLane="best" from="248698668#12" id="veh55_46800" to="-490165001#1" type="veh_passenger"/>
    <trip depart="46851.17" departLane="best" from="1039159932#1" id="veh57_46800" to="479621763#11" type="veh_passenger"/>
    <trip depart="46852.97" departLane="best" from="491462355" id="veh59_46800" to="255416245#1" type="veh_passenger"/>
    <trip depart="46853.87" departLane="best" from="491638583#0" id="veh60_46800" to="255416142#2" type="veh_passenger"/>
    <trip depart="46854.77" departLane="best" from="-100646217#1" id="veh61_46800" to="1040911960" type="veh_passenger"/>
    <trip depart="46859.26" departLane="best" from="-256157283#0" id="veh66_46800" to="216065938#0" type="veh_passenger"/>
    <trip depart="46860.15" departLane="best" from="-248698668#10" id="veh67_46800" to="491628725#1-AddedOffRampEdge" type="veh_passenger"/>
    <trip depart="46861.05" departLane="best" from="491628725#1-AddedOffRampEdge" id="veh68_46800" to="-479797283#1" type="veh_passenger"/>
    <trip depart="46861.95" departLane="best" from="224737854#2" id="veh69_46800" to="25931028#3" type="veh_passenger"/>
    <trip depart="46864.64" departLane="best" from="25931909" id="veh72_46800" to="481854591#1" type="veh_passenger"/>
    <trip depart="46865.54" departLane="best" from="-625413768#3" id="veh73_46800" to="1039159932#1" type="veh_passenger"/>
    <trip depart="46866.44" departLane="best" from="994962124#2" id="veh74_46800" to="479797239#0" type="veh_passenger"/>
    <trip depart="46868.23" departLane="best" from="-479621745#7" id="veh76_46800" to="1032262905#1" type="veh_passenger"/>
    <trip depart="46869.13" departLane="best" from="1041504065" id="veh77_46800" to="321071861#1" type="veh_passenger"/>
    <trip depart="46870.03" departLane="best" from="1032665742" id="veh78_46800" to="100646260#0" type="veh_passenger"/>
    <trip depart="46870.93" departLane="best" from="-248698668#8" id="veh79_46800" to="479621745#7" type="veh_passenger"/>
    <trip depart="46872.72" departLane="best" from="625413768#2" id="veh81_46800" to="-255416245#0" type="veh_passenger"/>
    <trip depart="46874.52" departLane="best" from="-994875416" id="veh83_46800" to="-479797308" type="veh_passenger"/>
    <trip depart="46875.42" departLane="best" from="742727484#1" id="veh84_46800" to="26234533#0" type="veh_passenger"/>
    <trip depart="46876.31" departLane="best" from="224737852#6" id="veh85_46800" to="538068606-AddedOffRampEdge" type="veh_passenger"/>
    <trip depart="46877.21" departLane="best" from="-320758120" id="veh86_46800" to="156148432#0" type="veh_passenger"/>
    <trip depart="46879.01" departLane="best" from="481854588#3" id="veh88_46800" to="479797313#0" type="veh_passenger"/>
    <trip depart="46880.8" departLane="best" from="156148407#0" id="veh90_46800" to="1041235840#1-AddedOffRampEdge" type="veh_passenger"/>
    <trip depart="46881.7" departLane="best" from="625413783#2" id="veh91_46800" to="1036062887" type="veh_passenger"/>
    <trip depart="46882.6" departLane="best" from="-61163715#2" id="veh92_46800" to="159455874#9" type="veh_passenger"/>
    <trip depart="46883.5" departLane="best" from="159453472#0" id="veh93_46800" to="1036341357#1" type="veh_passenger"/>
    <trip depart="46885.29" departLane="best" from="166563429#6" id="veh95_46800" to="625413766#0" type="veh_passenger"/>
    <trip depart="46887.09" departLane="best" from="996026061#1" id="veh97_46800" to="622873931#7" type="veh_passenger"/>
    <trip depart="46887.99" departLane="best" from="854001000#1" id="veh98_46800" to="742727471" type="veh_passenger"/>
    <trip depart="46889.78" departLane="best" from="235427270" id="veh100_46800" to="100646217#3" type="veh_passenger"/>
    <trip depart="46892.47" departLane="best" from="1036341358#1" id="veh103_46800" to="538068606-AddedOffRampEdge" type="veh_passenger"/>
    <trip depart="46893.37" departLane="best" from="178774217#1" id="veh104_46800" to="156148417" type="veh_passenger"/>
    <trip depart="46895.17" departLane="best" from="25934395#5" id="veh106_46800" to="480283416#1" type="veh_passenger"/>
    <trip depart="46896.07" departLane="best" from="-480250296#0" id="veh107_46800" to="1036360487#6" type="veh_passenger"/>
    <trip depart="46896.96" departLane="best" from="854001000#0" id="veh108_46800" to="320758120" type="veh_passenger"/>
    <trip depart="46897.86" departLane="best" from="25931909" id="veh109_46800" to="490192688#5" type="veh_passenger"/>
    <trip depart="46898.76" departLane="best" from="-234517427#4" id="veh110_46800" to="320758139" type="veh_passenger"/>
    <trip depart="46899.66" departLane="best" from="248698670#0" id="veh111_46800" to="623891500#1" type="veh_passenger"/>
    <trip depart="46900.55" departLane="best" from="-480250299#0" id="veh112_46800" to="774852739#1" type="veh_passenger"/>
    <trip depart="46902.35" departLane="best" from="323563821#1" id="veh114_46800" to="479797313#4" type="veh_passenger"/>
    <trip depart="46905.04" departLane="best" from="323563821#0" id="veh117_46800" to="475316658#1" type="veh_passenger"/>
    <trip depart="46905.94" departLane="best" from="159453449#8" id="veh118_46800" to="320758139" type="veh_passenger"/>
    <trip depart="46906.84" departLane="best" from="256157278#1" id="veh119_46800" to="742727484#3" type="veh_passenger"/>
    <trip depart="46907.74" departLane="best" from="-658095569#2" id="veh120_46800" to="480276562" type="veh_passenger"/>
    <trip depart="46908.63" departLane="best" from="1036060565" id="veh121_46800" to="1042716327" type="veh_passenger"/>
    <trip depart="46909.53" departLane="best" from="479797313#7" id="veh122_46800" to="1038266651" type="veh_passenger"/>
    <trip depart="46910.43" departLane="best" from="1040925852" id="veh123_46800" to="490213894-AddedOffRampEdge" type="veh_passenger"/>
    <trip depart="46911.33" departLane="best" from="-248698670#2" id="veh124_46800" to="166563426#3" type="veh_passenger"/>
    <trip depart="46912.23" departLane="best" from="-255416142#1" id="veh125_46800" to="100646208" type="veh_passenger"/>
    <trip depart="46913.12" departLane="best" from="1036341358#1" id="veh126_46800" to="742727484#0" type="veh_passenger"/>
    <trip depart="46914.02" departLane="best" from="1042693361#1" id="veh127_46800" to="-480282281#0" type="veh_passenger"/>
    <trip depart="46914.92" departLane="best" from="622873931#7" id="veh128_46800" to="480250293#0" type="veh_passenger"/>
    <trip depart="46915.82" departLane="best" from="475316653#6" id="veh129_46800" to="854052897#4" type="veh_passenger"/>
    <trip depart="46916.71" departLane="best" from="479797277#2" id="veh130_46800" to="-100646260#1" type="veh_passenger"/>
    <trip depart="46917.61" departLane="best" from="618364867#1" id="veh131_46800" to="1038110939" type="veh_passenger"/>
    <trip depart="46918.51" departLane="best" from="479797310#0" id="veh132_46800" to="765449926#0" type="veh_passenger"/>
    <trip depart="46920.31" departLane="best" from="-475316645#2" id="veh134_46800" to="25931028#5" type="veh_passenger"/>
    <trip depart="46923" departLane="best" from="479621763#12" id="veh137_46800" to="1036099956#3" type="veh_passenger"/>
    <trip depart="46923.9" departLane="best" from="235427743#0" id="veh138_46800" to="696730624" type="veh_passenger"/>
    <trip depart="46924.8" departLane="best" from="623474397#0" id="veh139_46800" to="-379986688#2" type="veh_passenger"/>
    <trip depart="46925.69" departLane="best" from="159453472#4" id="veh140_46800" to="1036341355" type="veh_passenger"/>
    <trip depart="46926.59" departLane="best" from="-100646242#1" id="veh141_46800" to="491632371#2" type="veh_passenger"/>
    <trip depart="46927.49" departLane="best" from="479621774#2" id="veh142_46800" to="1036099953" type="veh_passenger"/>
    <trip depart="46928.39" departLane="best" from="489606090" id="veh143_46800" to="25931028#4" type="veh_passenger"/>
    <trip depart="46929.28" departLane="best" from="159455874#4" id="veh144_46800" to="-100646264#0" type="veh_passenger"/>
    <trip depart="46930.18" departLane="best" from="-255416153" id="veh145_46800" to="665451330#1" type="veh_passenger"/>
    <trip depart="46931.98" departLane="best" from="622873934#0" id="veh147_46800" to="320758130#1" type="veh_passenger"/>
    <trip depart="46932.88" departLane="best" from="-479816722#1" id="veh148_46800" to="-479797258#5" type="veh_passenger"/>
    <trip depart="46933.77" departLane="best" from="1040260533" id="veh149_46800" to="684128578#2" type="veh_passenger"/>
    <trip depart="46934.67" departLane="best" from="583797089#8" id="veh150_46800" to="625413762#3" type="veh_passenger"/>
    <trip depart="46935.57" departLane="best" from="684128578#0" id="veh151_46800" to="-775380332#4" type="veh_passenger"/>
    <trip depart="46937.36" departLane="best" from="491638583#6" id="veh153_46800" to="665451330#2" type="veh_passenger"/>
    <trip depart="46938.26" departLane="best" from="156148419#1" id="veh154_46800" to="475319371#0" type="veh_passenger"/>
    <trip depart="46940.06" departLane="best" from="625418511" id="veh156_46800" to="854040750" type="veh_passenger"/>
    <trip depart="46943.65" departLane="best" from="61163710#13" id="veh160_46800" to="625413783#2" type="veh_passenger"/>
    <trip depart="46945.44" departLane="best" from="538068340#1" id="veh162_46800" to="-479613101#1" type="veh_passenger"/>
    <trip depart="46947.24" departLane="best" from="100646256#1" id="veh164_46800" to="618371794" type="veh_passenger"/>
    <trip depart="46948.14" departLane="best" from="216060954#1" id="veh165_46800" to="1039133060" type="veh_passenger"/>
    <trip depart="46949.04" departLane="best" from="583797089#7" id="veh166_46800" to="1032987570#1" type="veh_passenger"/>
    <trip depart="46949.93" departLane="best" from="-1042698679" id="veh167_46800" to="-622804129#0" type="veh_passenger"/>
    <trip depart="46950.83" departLane="best" from="1041235840#0" id="veh168_46800" to="625413783#3" type="veh_passenger"/>
    <trip depart="46951.73" departLane="best" from="479751865#1" id="veh169_46800" to="1042728028#1" type="veh_passenger"/>
    <trip depart="46952.63" departLane="best" from="854052892-AddedOffRampEdge" id="veh170_46800" to="255416223#1" type="veh_passenger"/>
    <trip depart="46953.52" departLane="best" from="764267604" id="veh171_46800" to="-479621752#0" type="veh_passenger"/>
    <trip depart="46954.42" departLane="best" from="854001002#1" id="veh172_46800" to="-490165001#1" type="veh_passenger"/>
    <trip depart="46955.32" departLane="best" from="775122579#1" id="veh173_46800" to="1036114082" type="veh_passenger"/>
    <trip depart="46956.22" departLane="best" from="-475316653#0" id="veh174_46800" to="159453447#8" type="veh_passenger"/>
    <trip depart="46957.12" departLane="best" from="481854585" id="veh175_46800" to="1039159937" type="veh_passenger"/>
    <trip depart="46958.91" departLane="best" from="123423117#1" id="veh177_46800" to="320755661#1" type="veh_passenger"/>
    <trip depart="46959.81" departLane="best" from="1036338535" id="veh178_46800" to="480250299#1" type="veh_passenger"/>
    <trip depart="46960.71" departLane="best" from="-100646220#2" id="veh179_46800" to="742727470" type="veh_passenger"/>
    <trip depart="46962.5" departLane="best" from="489606090" id="veh181_46800" to="479797310#7" type="veh_passenger"/>
    <trip depart="46963.4" departLane="best" from="1042449169#1" id="veh182_46800" to="-255416229#2" type="veh_passenger"/>
    <trip depart="46965.2" departLane="best" from="1040882903" id="veh184_46800" to="623138417" type="veh_passenger"/>
    <trip depart="46966.09" departLane="best" from="480284576#1" id="veh185_46800" to="1038324580" type="veh_passenger"/>
    <trip depart="46966.99" departLane="best" from="1040591005" id="veh186_46800" to="145126347" type="veh_passenger"/>
    <trip depart="46967.89" departLane="best" from="156148404#3" id="veh187_46800" to="1036360487#5" type="veh_passenger"/>
    <trip depart="46968.79" departLane="best" from="-479621763#5" id="veh188_46800" to="156148404#2" type="veh_passenger"/>
    <trip depart="46969.69" departLane="best" from="764267605" id="veh189_46800" to="479797318#0" type="veh_passenger"/>
    <trip depart="46971.48" departLane="best" from="1039159935" id="veh191_46800" to="25931028#2" type="veh_passenger"/>
    <trip depart="46972.38" departLane="best" from="-100646217#0" id="veh192_46800" to="1036342983" type="veh_passenger"/>
    <trip depart="46973.28" departLane="best" from="159455874#8" id="veh193_46800" to="320758122#1" type="veh_passenger"/>
    <trip depart="46975.07" departLane="best" from="166563429#4" id="veh195_46800" to="100646217#3" type="veh_passenger"/>
    <trip depart="46975.97" departLane="best" from="224737854#0" id="veh196_46800" to="684135634#2" type="veh_passenger"/>
    <trip depart="46976.87" departLane="best" from="583797089#8" id="veh197_46800" to="-483726628#0" type="veh_passenger"/>
    <trip depart="46978.66" departLane="best" from="479621758#4" id="veh199_46800" to="1041187875" type="veh_passenger"/>
    <trip depart="46980.46" departLane="best" from="479797318#4" id="veh201_46800" to="1032262905#1" type="veh_passenger"/>
    <trip depart="46981.36" departLane="best" from="-623891515#1" id="veh202_46800" to="-159455892#4" type="veh_passenger"/>
    <trip depart="46983.15" departLane="best" from="623474399#3" id="veh204_46800" to="-255416251#2" type="veh_passenger"/>
    <trip depart="46984.05" departLane="best" from="159453447#12" id="veh205_46800" to="479621745#2" type="veh_passenger"/>
    <trip depart="46984.95" departLane="best" from="-622873929#0" id="veh206_46800" to="479816723#0" type="veh_passenger"/>
    <trip depart="46985.85" departLane="best" from="245763347#0" id="veh207_46800" to="1036052086#2" type="veh_passenger"/>
    <trip depart="46986.74" departLane="best" from="479797279" id="veh208_46800" to="-100646248#2" type="veh_passenger"/>
    <trip depart="46988.54" departLane="best" from="-475316645#2" id="veh210_46800" to="156148419#2" type="veh_passenger"/>
    <trip depart="46989.44" departLane="best" from="-483796488#0" id="veh211_46800" to="773876919#3" type="veh_passenger"/>
    <trip depart="46992.13" departLane="best" from="178774219#2" id="veh214_46800" to="61163710#1" type="veh_passenger"/>
    <trip depart="46993.93" departLane="best" from="323563821#2" id="veh216_46800" to="773159596#1" type="veh_passenger"/>
    <trip depart="46994.82" departLane="best" from="665453544" id="veh217_46800" to="47070283#3" type="veh_passenger"/>
    <trip depart="46995.72" departLane="best" from="480284575" id="veh218_46800" to="235424958#4" type="veh_passenger"/>
    <trip depart="46996.62" departLane="best" from="622873931#0" id="veh219_46800" to="25931028#2" type="veh_passenger"/>
    <trip depart="46997.52" departLane="best" from="665453553" id="veh220_46800" to="489629072#3" type="veh_passenger"/>
    <trip depart="46999.31" departLane="best" from="1036079534" id="veh222_46800" to="479621758#3" type="veh_passenger"/>
    <trip depart="47002.01" departLane="best" from="-255416209#0" id="veh225_46800" to="1036342983" type="veh_passenger"/>
    <trip depart="47003.8" departLane="best" from="25931909" id="veh227_46800" to="-479797345#1" type="veh_passenger"/>
    <trip depart="47006.5" departLane="best" from="156148419#4" id="veh230_46800" to="256157279" type="veh_passenger"/>
    <trip depart="47009.19" departLane="best" from="321073225#1" id="veh233_46800" to="479816717#0" type="veh_passenger"/>
    <trip depart="47010.09" departLane="best" from="625397297" id="veh234_46800" to="491628727#0" type="veh_passenger"/>
    <trip depart="47010.98" departLane="best" from="1042716324" id="veh235_46800" to="-100646252#0" type="veh_passenger"/>
    <trip depart="47011.88" departLane="best" from="1041544550#0" id="veh236_46800" to="490216931#1" type="veh_passenger"/>
    <trip depart="47012.78" departLane="best" from="623891513" id="veh237_46800" to="773159597#3" type="veh_passenger"/>
    <trip depart="47013.68" departLane="best" from="159453449#7" id="veh238_46800" to="490192688#3-AddedOnRampEdge" type="veh_passenger"/>
    <trip depart="47014.58" departLane="best" from="25931950-AddedOffRampEdge" id="veh239_46800" to="321073948" type="veh_passenger"/>
    <trip depart="47016.37" departLane="best" from="1041504064" id="veh241_46800" to="479797321" type="veh_passenger"/>
    <trip depart="47018.17" departLane="best" from="224737849#3" id="veh243_46800" to="-479797258#6" type="veh_passenger"/>
    <trip depart="47019.96" departLane="best" from="156148397#3" id="veh245_46800" to="25934381#0" type="veh_passenger"/>
    <trip depart="47020.86" departLane="best" from="-156148407#1" id="veh246_46800" to="479751358#0" type="veh_passenger"/>
    <trip depart="47021.76" departLane="best" from="-479797279" id="veh247_46800" to="166563429#5" type="veh_passenger"/>
    <trip depart="47022.66" departLane="best" from="-216060954#0" id="veh248_46800" to="1042449170" type="veh_passenger"/>
    <trip depart="47023.55" departLane="best" from="490718877#0" id="veh249_46800" to="1042449170" type="veh_passenger"/>
    <trip depart="47025.35" departLane="best" from="1036313338" id="veh251_46800" to="-25934385#0" type="veh_passenger"/>
    <trip depart="47026.25" departLane="best" from="-1039220886" id="veh252_46800" to="255416245#1" type="veh_passenger"/>
    <trip depart="47027.15" departLane="best" from="479797258#5" id="veh253_46800" to="538068339#5" type="veh_passenger"/>
    <trip depart="47028.04" departLane="best" from="479797271" id="veh254_46800" to="490216934#0" type="veh_passenger"/>
    <trip depart="47028.94" departLane="best" from="773159597#1" id="veh255_46800" to="-623891512" type="veh_passenger"/>
    <trip depart="47030.74" departLane="best" from="-479621763#11" id="veh257_46800" to="479797310#2" type="veh_passenger"/>
    <trip depart="47031.63" departLane="best" from="267535712" id="veh258_46800" to="100646248#1" type="veh_passenger"/>
    <trip depart="47032.53" departLane="best" from="480250287#2" id="veh259_46800" to="491628727#1" type="veh_passenger"/>
    <trip depart="47033.43" departLane="best" from="-480284570" id="veh260_46800" to="379986688#5" type="veh_passenger"/>
    <trip depart="47034.33" departLane="best" from="490165001#0" id="veh261_46800" to="-479621751#0" type="veh_passenger"/>
    <trip depart="47036.12" departLane="best" from="-475316652#3" id="veh263_46800" to="-159457890#2" type="veh_passenger"/>
    <trip depart="47037.02" departLane="best" from="1040882902#0" id="veh264_46800" to="479797318#0" type="veh_passenger"/>
    <trip depart="47037.92" departLane="best" from="774852739#0" id="veh265_46800" to="1042716327" type="veh_passenger"/>
    <trip depart="47039.71" departLane="best" from="479812143#3" id="veh267_46800" to="479613108#1" type="veh_passenger"/>
    <trip depart="47041.51" departLane="best" from="623891500#1" id="veh269_46800" to="321073251" type="veh_passenger"/>
    <trip depart="47042.41" departLane="best" from="491638590#0" id="veh270_46800" to="1041521601" type="veh_passenger"/>
    <trip depart="47043.31" departLane="best" from="159455874#5" id="veh271_46800" to="1042334799" type="veh_passenger"/>
    <trip depart="47044.2" departLane="best" from="248698674#2" id="veh272_46800" to="1041286369" type="veh_passenger"/>
    <trip depart="47046" departLane="best" from="-475316645#0" id="veh274_46800" to="774852739#1" type="veh_passenger"/>
    <trip depart="47046.9" departLane="best" from="479621763#6" id="veh275_46800" to="622804124#1" type="veh_passenger"/>
    <trip depart="47048.69" departLane="best" from="483726628#1" id="veh277_46800" to="775380332#4" type="veh_passenger"/>
    <trip depart="47049.59" departLane="best" from="1036341364#0" id="veh278_46800" to="61163785#3" type="veh_passenger"/>
    <trip depart="47050.49" departLane="best" from="25931907" id="veh279_46800" to="216060954#3" type="veh_passenger"/>
    <trip depart="47051.39" departLane="best" from="159455892#3" id="veh280_46800" to="481854596#2" type="veh_passenger"/>
    <trip depart="47052.28" departLane="best" from="1036341362#1" id="veh281_46800" to="623474399#2" type="veh_passenger"/>
    <trip depart="47053.18" departLane="best" from="622873931#0" id="veh282_46800" to="-320755658#2" type="veh_passenger"/>
    <trip depart="47054.08" departLane="best" from="665451328#4" id="veh283_46800" to="1036052086#2" type="veh_passenger"/>
    <trip depart="47054.98" departLane="best" from="216065940#2" id="veh284_46800" to="390383583#0" type="veh_passenger"/>
    <trip depart="47057.67" departLane="best" from="-856908280" id="veh287_46800" to="584750383#1" type="veh_passenger"/>
    <trip depart="47059.47" departLane="best" from="480250295#0" id="veh289_46800" to="1036341355" type="veh_passenger"/>
    <trip depart="47061.26" departLane="best" from="-256157283#0" id="veh291_46800" to="480284575" type="veh_passenger"/>
    <trip depart="47062.16" departLane="best" from="235427743#0" id="veh292_46800" to="491628725#0" type="veh_passenger"/>
    <trip depart="47063.06" departLane="best" from="479812143#3" id="veh293_46800" to="479751374#1" type="veh_passenger"/>
    <trip depart="47063.96" departLane="best" from="235436489#0" id="veh294_46800" to="583797089#2" type="veh_passenger"/>
    <trip depart="47064.85" departLane="best" from="-25934395#4" id="veh295_46800" to="100646269#0" type="veh_passenger"/>
    <trip depart="47065.75" departLane="best" from="479812147#0" id="veh296_46800" to="1039133060" type="veh_passenger"/>
    <trip depart="47067.55" departLane="best" from="25931028#4" id="veh298_46800" to="156148419#3" type="veh_passenger"/>
    <trip depart="47068.44" departLane="best" from="489924065" id="veh299_46800" to="1040929341" type="veh_passenger"/>
    <trip depart="47069.34" departLane="best" from="480250296#2" id="veh300_46800" to="1036341350#3" type="veh_passenger"/>
    <trip depart="47070.24" departLane="best" from="1036114082" id="veh301_46800" to="-479621763#9" type="veh_passenger"/>
    <trip depart="47071.14" departLane="best" from="-61163785#3" id="veh302_46800" to="-479621763#5" type="veh_passenger"/>
    <trip depart="47072.04" departLane="best" from="25931033" id="veh303_46800" to="491628725#3" type="veh_passenger"/>
    <trip depart="47072.93" departLane="best" from="-491638583#3" id="veh304_46800" to="100646242#1" type="veh_passenger"/>
    <trip depart="47075.63" departLane="best" from="1036360487#6" id="veh307_46800" to="-475316653#0" type="veh_passenger"/>
    <trip depart="47076.52" departLane="best" from="-622805764#1" id="veh308_46800" to="1032987570#1" type="veh_passenger"/>
    <trip depart="47079.22" departLane="best" from="854040751" id="veh311_46800" to="25931028#5" type="veh_passenger"/>
    <trip depart="47080.12" departLane="best" from="479816723#2" id="veh312_46800" to="-479797258#1" type="veh_passenger"/>
    <trip depart="47081.91" departLane="best" from="658130902" id="veh314_46800" to="26234533#2" type="veh_passenger"/>
    <trip depart="47082.81" departLane="best" from="224737850#2" id="veh315_46800" to="159453472#0" type="veh_passenger"/>
    <trip depart="47083.71" departLane="best" from="-490718877#2" id="veh316_46800" to="-248698662" type="veh_passenger"/>
    <trip depart="47085.5" departLane="best" from="618371797" id="veh318_46800" to="1046628053" type="veh_passenger"/>
    <trip depart="47086.4" departLane="best" from="-255416142#4" id="veh319_46800" to="479621745#1" type="veh_passenger"/>
    <trip depart="47088.2" departLane="best" from="267535712" id="veh321_46800" to="1039133060" type="veh_passenger"/>
    <trip depart="47089.09" departLane="best" from="994962121#3" id="veh322_46800" to="-479621763#11" type="veh_passenger"/>
    <trip depart="47089.99" departLane="best" from="491628725#1" id="veh323_46800" to="379986688#1" type="veh_passenger"/>
    <trip depart="47091.79" departLane="best" from="256157278#0" id="veh325_46800" to="159455875#2" type="veh_passenger"/>
    <trip depart="47092.69" departLane="best" from="166563429#5" id="veh326_46800" to="625413762#1" type="veh_passenger"/>
    <trip depart="47093.58" departLane="best" from="901285521" id="veh327_46800" to="1039133060" type="veh_passenger"/>
    <trip depart="47094.48" departLane="best" from="479621743#1" id="veh328_46800" to="379986768" type="veh_passenger"/>
    <trip depart="47095.38" departLane="best" from="489606084-AddedOnRampEdge" id="veh329_46800" to="765467137" type="veh_passenger"/>
    <trip depart="47096.28" departLane="best" from="-665451328#7" id="veh330_46800" to="-775599627#0" type="veh_passenger"/>
    <trip depart="47097.17" departLane="best" from="479797300#0" id="veh331_46800" to="-480282280" type="veh_passenger"/>
    <trip depart="47098.07" departLane="best" from="-480475790#0" id="veh332_46800" to="-256157278#0" type="veh_passenger"/>
    <trip depart="47098.97" departLane="best" from="-100646234" id="veh333_46800" to="159455875#2" type="veh_passenger"/>