<routes>
    <vType id="veh_passenger" vClass="passenger"/>
    <trip depart="64800" departLane="best" from="479751369#4" id="veh0_64800" to="-159455892#6" type="veh_passenger"/>
    <trip depart="64800.9" departLane="best" from="1036346145" id="veh1_64800" to="100646295#1" type="veh_passenger"/>
    <trip depart="64801.8" departLane="best" from="486825027#0" id="veh2_64800" to="479797313#7" type="veh_passenger"/>
    <trip depart="64802.69" departLane="best" from="665453544" id="veh3_64800" to="-320755659#0" type="veh_passenger"/>
    <trip depart="64804.49" departLane="best" from="100646220#1" id="veh5_64800" to="235424958#4" type="veh_passenger"/>
    <trip depart="64805.39" departLane="best" from="-155033028#1" id="veh6_64800" to="-623891502#0" type="veh_passenger"/>
    <trip depart="64806.28" departLane="best" from="479797258#4" id="veh7_64800" to="25931028#0" type="veh_passenger"/>
    <trip depart="64807.18" departLane="best" from="100646245#3" id="veh8_64800" to="321071861#2" type="veh_passenger"/>
    <trip depart="64808.98" departLane="best" from="1041521602" id="veh10_64800" to="-480276564" type="veh_passenger"/>
    <trip depart="64809.88" departLane="best" from="773876919#5" id="veh11_64800" to="1041187875-AddedOnRampEdge" type="veh_passenger"/>
    <trip depart="64811.67" departLane="best" from="623474397#3" id="veh13_64800" to="321073948" type="veh_passenger"/>
    <trip depart="64812.57" departLane="best" from="61163715#4" id="veh14_64800" to="481854591#1" type="veh_passenger"/>
    <trip depart="64813.47" departLane="best" from="25931033" id="veh15_64800" to="854001005#0" type="veh_passenger"/>
    <trip depart="64815.26" departLane="best" from="622809059#0" id="veh17_64800" to="475316653#4" type="veh_passenger"/>
    <trip depart="64816.16" departLane="best" from="625413783#2" id="veh18_64800" to="320755665" type="veh_passenger"/>
    <trip depart="64819.75" departLane="best" from="-379986746#0" id="veh22_64800" to="1036341357#0" type="veh_passenger"/>
    <trip depart="64821.55" departLane="best" from="1042693362#0" id="veh24_64800" to="-775380332#0" type="veh_passenger"/>
    <trip depart="64822.45" departLane="best" from="1036341360#1" id="veh25_64800" to="743386900" type="veh_passenger"/>
    <trip depart="64823.34" departLane="best" from="479797253#1" id="veh26_64800" to="379986751" type="veh_passenger"/>
    <trip depart="64825.14" departLane="best" from="-480252897#2" id="veh28_64800" to="1042449170" type="veh_passenger"/>
    <trip depart="64826.04" departLane="best" from="901285519#0" id="veh29_64800" to="479621763#4" type="veh_passenger"/>
    <trip depart="64827.83" departLane="best" from="623128861" id="veh31_64800" to="491638585" type="veh_passenger"/>
    <trip depart="64830.53" departLane="best" from="-775380332#5" id="veh34_64800" to="765449928" type="veh_passenger"/>
    <trip depart="64832.32" departLane="best" from="479797277#5" id="veh36_64800" to="1042716326" type="veh_passenger"/>
    <trip depart="64833.22" departLane="best" from="742718528#2" id="veh37_64800" to="166563426#4" type="veh_passenger"/>
    <trip depart="64834.12" departLane="best" from="1036341358#0" id="veh38_64800" to="1036060565" type="veh_passenger"/>
    <trip depart="64835.01" departLane="best" from="26234656#0" id="veh39_64800" to="1036099955" type="veh_passenger"/>
    <trip depart="64835.91" departLane="best" from="321073225#2" id="veh40_64800" to="684128578#0" type="veh_passenger"/>
    <trip depart="64836.81" departLane="best" from="156148402#2" id="veh41_64800" to="100646256#0" type="veh_passenger"/>
    <trip depart="64837.71" departLane="best" from="994962124#6" id="veh42_64800" to="235424974#1" type="veh_passenger"/>
    <trip depart="64839.5" departLane="best" from="-475316653#5" id="veh44_64800" to="479613108#2" type="veh_passenger"/>
    <trip depart="64840.4" departLane="best" from="583797089#1" id="veh45_64800" to="156148413#0" type="veh_passenger"/>
    <trip depart="64841.3" departLane="best" from="-248698662" id="veh46_64800" to="1042676039" type="veh_passenger"/>
    <trip depart="64842.2" departLane="best" from="994962124#3" id="veh47_64800" to="248698674#2" type="veh_passenger"/>
    <trip depart="64843.09" departLane="best" from="854001005#0" id="veh48_64800" to="625413762#3" type="veh_passenger"/>
    <trip depart="64843.99" departLane="best" from="-1036047409#0" id="veh49_64800" to="480284576#2" type="veh_passenger"/>
    <trip depart="64844.89" departLane="best" from="479797341#1-AddedOnRampEdge" id="veh50_64800" to="255416224#2" type="veh_passenger"/>
    <trip depart="64845.79" departLane="best" from="1036341360#0" id="veh51_64800" to="479621763#7" type="veh_passenger"/>
    <trip depart="64846.69" departLane="best" from="-475319370" id="veh52_64800" to="159453447#8" type="veh_passenger"/>
    <trip depart="64847.58" departLane="best" from="178774212#0" id="veh53_64800" to="773159597#3" type="veh_passenger"/>
    <trip depart="64849.38" departLane="best" from="248698668#12" id="veh55_64800" to="-490165001#1" type="veh_passenger"/>
    <trip depart="64851.17" departLane="best" from="1039159932#1" id="veh57_64800" to="479621763#11" type="veh_passenger"/>
    <trip depart="64852.97" departLane="best" from="491462355" id="veh59_64800" to="255416245#1" type="veh_passenger"/>
    <trip depart="64853.87" departLane="best" from="491638583#0" id="veh60_64800" to="255416142#2" type="veh_passenger"/>
    <trip depart="64854.77" departLane="best" from="-100646217#1" id="veh61_64800" to="1040911960" type="veh_passenger"/>
    <trip depart="64859.26" departLane="best" from="-256157283#0" id="veh66_64800" to="216065938#0" type="veh_passenger"/>
    <trip depart="64860.15" departLane="best" from="-248698668#10" id="veh67_64800" to="491628725#1-AddedOffRampEdge" type="veh_passenger"/>
    <trip depart="64861.05" departLane="best" from="491628725#1-AddedOffRampEdge" id="veh68_64800" to="-479797283#1" type="veh_passenger"/>
    <trip depart="64861.95" departLane="best" from="224737854#2" id="veh69_64800" to="25931028#3" type="veh_passenger"/>
    <trip depart="64864.64" departLane="best" from="25931909" id="veh72_64800" to="481854591#1" type="veh_passenger"/>
    <trip depart="64865.54" departLane="best" from="-625413768#3" id="veh73_64800" to="1039159932#1" type="veh_passenger"/>
    <trip depart="64866.44" departLane="best" from="994962124#2" id="veh74_64800" to="479797239#0" type="veh_passenger"/>
    <trip depart="64868.23" departLane="best" from="-479621745#7" id="veh76_64800" to="1032262905#1" type="veh_passenger"/>
    <trip depart="64869.13" departLane="best" from="1041504065" id="veh77_64800" to="321071861#1" type="veh_passenger"/>
    <trip depart="64870.03" departLane="best" from="1032665742" id="veh78_64800" to="100646260#0" type="veh_passenger"/>
    <trip depart="64870.93" departLane="best" from="-248698668#8" id="veh79_64800" to="479621745#7" type="veh_passenger"/>
    <trip depart="64872.72" departLane="best" from="625413768#2" id="veh81_64800" to="-255416245#0" type="veh_passenger"/>
    <trip depart="64874.52" departLane="best" from="-994875416" id="veh83_64800" to="-479797308" type="veh_passenger"/>
    <trip depart="64875.42" departLane="best" from="742727484#1" id="veh84_64800" to="26234533#0" type="veh_passenger"/>
    <trip depart="64876.31" departLane="best" from="224737852#6" id="veh85_64800" to="538068606-AddedOffRampEdge" type="veh_passenger"/>
    <trip depart="64877.21" departLane="best" from="-320758120" id="veh86_64800" to="156148432#0" type="veh_passenger"/>
    <trip depart="64879.01" departLane="best" from="481854588#3" id="veh88_64800" to="479797313#0" type="veh_passenger"/>
    <trip depart="64880.8" departLane="best" from="156148407#0" id="veh90_64800" to="1041235840#1-AddedOffRampEdge" type="veh_passenger"/>
    <trip depart="64881.7" departLane="best" from="625413783#2" id="veh91_64800" to="1036062887" type="veh_passenger"/>
    <trip depart="64882.6" departLane="best" from="-61163715#2" id="veh92_64800" to="159455874#9" type="veh_passenger"/>
    <trip depart="64883.5" departLane="best" from="159453472#0" id="veh93_64800" to="1036341357#1" type="veh_passenger"/>
    <trip depart="64885.29" departLane="best" from="166563429#6" id="veh95_64800" to="625413766#0" type="veh_passenger"/>
    <trip depart="64887.09" departLane="best" from="996026061#1" id="veh97_64800" to="622873931#7" type="veh_passenger"/>
    <trip depart="64887.99" departLane="best" from="854001000#1" id="veh98_64800" to="742727471" type="veh_passenger"/>
    <trip depart="64889.78" departLane="best" from="235427270" id="veh100_64800" to="100646217#3" type="veh_passenger"/>
    <trip depart="64892.47" departLane="best" from="1036341358#1" id="veh103_64800" to="538068606-AddedOffRampEdge" type="veh_passenger"/>
    <trip depart="64893.37" departLane="best" from="178774217#1" id="veh104_64800" to="156148417" type="veh_passenger"/>
    <trip depart="64895.17" departLane="best" from="25934395#5" id="veh106_64800" to="480283416#1" type="veh_passenger"/>
    <trip depart="64896.07" departLane="best" from="-480250296#0" id="veh107_64800" to="1036360487#6" type="veh_passenger"/>
    <trip depart="64896.96" departLane="best" from="854001000#0" id="veh108_64800" to="320758120" type="veh_passenger"/>
    <trip depart="64897.86" departLane="best" from="25931909" id="veh109_64800" to="490192688#5" type="veh_passenger"/>
    <trip depart="64898.76" departLane="best" from="-234517427#4" id="veh110_64800" to="320758139" type="veh_passenger"/>
    <trip depart="64899.66" departLane="best" from="248698670#0" id="veh111_64800" to="623891500#1" type="veh_passenger"/>
    <trip depart="64900.55" departLane="best" from="-480250299#0" id="veh112_64800" to="774852739#1" type="veh_passenger"/>
    <trip depart="64902.35" departLane="best" from="323563821#1" id="veh114_64800" to="479797313#4" type="veh_passenger"/>
    <trip depart="64905.04" departLane="best" from="323563821#0" id="veh117_64800" to="475316658#1" type="veh_passenger"/>
    <trip depart="64905.94" departLane="best" from="159453449#8" id="veh118_64800" to="320758139" type="veh_passenger"/>
    <trip depart="64906.84" departLane="best" from="256157278#1" id="veh119_64800" to="742727484#3" type="veh_passenger"/>
    <trip depart="64907.74" departLane="best" from="-658095569#2" id="veh120_64800" to="480276562" type="veh_passenger"/>
    <trip depart="64908.63" departLane="best" from="1036060565" id="veh121_64800" to="1042716327" type="veh_passenger"/>
    <trip depart="64909.53" departLane="best" from="479797313#7" id="veh122_64800" to="1038266651" type="veh_passenger"/>
    <trip depart="64910.43" departLane="best" from="1040925852" id="veh123_64800" to="490213894-AddedOffRampEdge" type="veh_passenger"/>
    <trip depart="64911.33" departLane="best" from="-248698670#2" id="veh124_64800" to="166563426#3" type="veh_passenger"/>
    <trip depart="64912.23" departLane="best" from="-255416142#1" id="veh125_64800" to="100646208" type="veh_passenger"/>
    <trip depart="64913.12" departLane="best" from="1036341358#1" id="veh126_64800" to="742727484#0" type="veh_passenger"/>
    <trip depart="64914.02" departLane="best" from="1042693361#1" id="veh127_64800" to="-480282281#0" type="veh_passenger"/>
    <trip depart="64914.92" departLane="best" from="622873931#7" id="veh128_64800" to="480250293#0" type="veh_passenger"/>
    <trip depart="64915.82" departLane="best" from="475316653#6" id="veh129_64800" to="854052897#4" type="veh_passenger"/>
    <trip depart="64916.71" departLane="best" from="479797277#2" id="veh130_64800" to="-100646260#1" type="veh_passenger"/>
    <trip depart="64917.61" departLane="best" from="618364867#1" id="veh131_64800" to="1038110939" type="veh_passenger"/>
    <trip depart="64918.51" departLane="best" from="479797310#0" id="veh132_64800" to="765449926#0" type="veh_passenger"/>
    <trip depart="64920.31" departLane="best" from="-475316645#2" id="veh134_64800" to="25931028#5" type="veh_passenger"/>
    <trip depart="64923" departLane="best" from="479621763#12" id="veh137_64800" to="1036099956#3" type="veh_passenger"/>
    <trip depart="64923.9" departLane="best" from="235427743#0" id="veh138_64800" to="696730624" type="veh_passenger"/>
    <trip depart="64924.8" departLane="best" from="623474397#0" id="veh139_64800" to="-379986688#2" type="veh_passenger"/>
    <trip depart="64925.69" departLane="best" from="159453472#4" id="veh140_64800" to="1036341355" type="veh_passenger"/>
    <trip depart="64926.59" departLane="best" from="-100646242#1" id="veh141_64800" to="491632371#2" type="veh_passenger"/>
    <trip depart="64927.49" departLane="best" from="479621774#2" id="veh142_64800" to="1036099953" type="veh_passenger"/>
    <trip depart="64928.39" departLane="best" from="489606090" id="veh143_64800" to="25931028#4" type="veh_passenger"/>
    <trip depart="64929.28" departLane="best" from="159455874#4" id="veh144_64800" to="-100646264#0" type="veh_passenger"/>
    <trip depart="64930.18" departLane="best" from="-255416153" id="veh145_64800" to="665451330#1" type="veh_passenger"/>
    <trip depart="64931.98" departLane="best" from="622873934#0" id="veh147_64800" to="320758130#1" type="veh_passenger"/>
    <trip depart="64932.88" departLane="best" from="-479816722#1" id="veh148_64800" to="-479797258#5" type="veh_passenger"/>
    <trip depart="64933.77" departLane="best" from="1040260533" id="veh149_64800" to="684128578#2" type="veh_passenger"/>
    <trip depart="64934.67" departLane="best" from="583797089#8" id="veh150_64800" to="625413762#3" type="veh_passenger"/>
    <trip depart="64935.57" departLane="best" from="684128578#0" id="veh151_64800" to="-775380332#4" type="veh_passenger"/>
    <trip depart="64937.36" departLane="best" from="491638583#6" id="veh153_64800" to="665451330#2" type="veh_passenger"/>
    <trip depart="64938.26" departLane="best" from="156148419#1" id="veh154_64800" to="475319371#0" type="veh_passenger"/>
    <trip depart="64940.06" departLane="best" from="625418511" id="veh156_64800" to="854040750" type="veh_passenger"/>
    <trip depart="64943.65" departLane="best" from="61163710#13" id="veh160_64800" to="625413783#2" type="veh_passenger"/>
    <trip depart="64945.44" departLane="best" from="538068340#1" id="veh162_64800" to="-479613101#1" type="veh_passenger"/>
    <trip depart="64947.24" departLane="best" from="100646256#1" id="veh164_64800" to="618371794" type="veh_passenger"/>
    <trip depart="64948.14" departLane="best" from="216060954#1" id="veh165_64800" to="1039133060" type="veh_passenger"/>
    <trip depart="64949.04" departLane="best" from="583797089#7" id="veh166_64800" to="1032987570#1" type="veh_passenger"/>
    <trip depart="64949.93" departLane="best" from="-1042698679" id="veh167_64800" to="-622804129#0" type="veh_passenger"/>
    <trip depart="64950.83" departLane="best" from="1041235840#0" id="veh168_64800" to="625413783#3" type="veh_passenger"/>
    <trip depart="64951.73" departLane="best" from="479751865#1" id="veh169_64800" to="1042728028#1" type="veh_passenger"/>
    <trip depart="64952.63" departLane="best" from="854052892-AddedOffRampEdge" id="veh170_64800" to="255416223#1" type="veh_passenger"/>
    <trip depart="64953.52" departLane="best" from="764267604" id="veh171_64800" to="-479621752#0" type="veh_passenger"/>
    <trip depart="64954.42" departLane="best" from="854001002#1" id="veh172_64800" to="-490165001#1" type="veh_passenger"/>
    <trip depart="64955.32" departLane="best" from="775122579#1" id="veh173_64800" to="1036114082" type="veh_passenger"/>
    <trip depart="64956.22" departLane="best" from="-475316653#0" id="veh174_64800" to="159453447#8" type="veh_passenger"/>
    <trip depart="64957.12" departLane="best" from="481854585" id="veh175_64800" to="1039159937" type="veh_passenger"/>
    <trip depart="64958.91" departLane="best" from="123423117#1" id="veh177_64800" to="320755661#1" type="veh_passenger"/>
    <trip depart="64959.81" departLane="best" from="1036338535" id="veh178_64800" to="480250299#1" type="veh_passenger"/>
    <trip depart="64960.71" departLane="best" from="-100646220#2" id="veh179_64800" to="742727470" type="veh_passenger"/>
    <trip depart="64962.5" departLane="best" from="489606090" id="veh181_64800" to="479797310#7" type="veh_passenger"/>
    <trip depart="64963.4" departLane="best" from="1042449169#1" id="veh182_64800" to="-255416229#2" type="veh_passenger"/>
    <trip depart="64965.2" departLane="best" from="1040882903" id="veh184_64800" to="623138417" type="veh_passenger"/>
    <trip depart="64966.09" departLane="best" from="480284576#1" id="veh185_64800" to="1038324580" type="veh_passenger"/>
    <trip depart="64966.99" departLane="best" from="1040591005" id="veh186_64800" to="145126347" type="veh_passenger"/>
    <trip depart="64967.89" departLane="best" from="156148404#3" id="veh187_64800" to="1036360487#5" type="veh_passenger"/>
    <trip depart="64968.79" departLane="best" from="-479621763#5" id="veh188_64800" to="156148404#2" type="veh_passenger"/>
    <trip depart="64969.69" departLane="best" from="764267605" id="veh189_64800" to="479797318#0" type="veh_passenger"/>
    <trip depart="64971.48" departLane="best" from="1039159935" id="veh191_64800" to="25931028#2" type="veh_passenger"/>
    <trip depart="64972.38" departLane="best" from="-100646217#0" id="veh192_64800" to="1036342983" type="veh_passenger"/>
    <trip depart="64973.28" departLane="best" from="159455874#8" id="veh193_64800" to="320758122#1" type="veh_passenger"/>
    <trip depart="64975.07" departLane="best" from="166563429#4" id="veh195_64800" to="100646217#3" type="veh_passenger"/>
    <trip depart="64975.97" departLane="best" from="224737854#0" id="veh196_64800" to="684135634#2" type="veh_passenger"/>
    <trip depart="64976.87" departLane="best" from="583797089#8" id="veh197_64800" to="-483726628#0" type="veh_passenger"/>
    <trip depart="64978.66" departLane="best" from="479621758#4" id="veh199_64800" to="1041187875" type="veh_passenger"/>
    <trip depart="64980.46" departLane="best" from="479797318#4" id="veh201_64800" to="1032262905#1" type="veh_passenger"/>
    <trip depart="64981.36" departLane="best" from="-623891515#1" id="veh202_64800" to="-159455892#4" type="veh_passenger"/>
    <trip depart="64983.15" departLane="best" from="623474399#3" id="veh204_64800" to="-255416251#2" type="veh_passenger"/>
    <trip depart="64984.05" departLane="best" from="159453447#12" id="veh205_64800" to="479621745#2" type="veh_passenger"/>
    <trip depart="64984.95" departLane="best" from="-622873929#0" id="veh206_64800" to="479816723#0" type="veh_passenger"/>
    <trip depart="64985.85" departLane="best" from="245763347#0" id="veh207_64800" to="1036052086#2" type="veh_passenger"/>
    <trip depart="64986.74" departLane="best" from="479797279" id="veh208_64800" to="-100646248#2" type="veh_passenger"/>
    <trip depart="64988.54" departLane="best" from="-475316645#2" id="veh210_64800" to="156148419#2" type="veh_passenger"/>
    <trip depart="64989.44" departLane="best" from="-483796488#0" id="veh211_64800" to="773876919#3" type="veh_passenger"/>
    <trip depart="64992.13" departLane="best" from="178774219#2" id="veh214_64800" to="61163710#1" type="veh_passenger"/>
    <trip depart="64993.93" departLane="best" from="323563821#2" id="veh216_64800" to="773159596#1" type="veh_passenger"/>
    <trip depart="64994.82" departLane="best" from="665453544" id="veh217_64800" to="47070283#3" type="veh_passenger"/>
    <trip depart="64995.72" departLane="best" from="480284575" id="veh218_64800" to="235424958#4" type="veh_passenger"/>
    <trip depart="64996.62" departLane="best" from="622873931#0" id="veh219_64800" to="25931028#2" type="veh_passenger"/>
    <trip depart="64997.52" departLane="best" from="665453553" id="veh220_64800" to="489629072#3" type="veh_passenger"/>
    <trip depart="64999.31" departLane="best" from="1036079534" id="veh222_64800" to="479621758#3" type="veh_passenger"/>
    <trip depart="65002.01" departLane="best" from="-255416209#0" id="veh225_64800" to="1036342983" type="veh_passenger"/>
    <trip depart="65003.8" departLane="best" from="25931909" id="veh227_64800" to="-479797345#1" type="veh_passenger"/>
    <trip depart="65006.5" departLane="best" from="156148419#4" id="veh230_64800" to="256157279" type="veh_passenger"/>
    <trip depart="65009.19" departLane="best" from="321073225#1" id="veh233_64800" to="479816717#0" type="veh_passenger"/>
    <trip depart="65010.09" departLane="best" from="625397297" id="veh234_64800" to="491628727#0" type="veh_passenger"/>
    <trip depart="65010.98" departLane="best" from="1042716324" id="veh235_64800" to="-100646252#0" type="veh_passenger"/>
    <trip depart="65011.88" departLane="best" from="1041544550#0" id="veh236_64800" to="490216931#1" type="veh_passenger"/>
    <trip depart="65012.78" departLane="best" from="623891513" id="veh237_64800" to="773159597#3" type="veh_passenger"/>
    <trip depart="65013.68" departLane="best" from="159453449#7" id="veh238_64800" to="490192688#3-AddedOnRampEdge" type="veh_passenger"/>
    <trip depart="65014.58" departLane="best" from="25931950-AddedOffRampEdge" id="veh239_64800" to="321073948" type="veh_passenger"/>
    <trip depart="65016.37" departLane="best" from="1041504064" id="veh241_64800" to="479797321" type="veh_passenger"/>
    <trip depart="65018.17" departLane="best" from="224737849#3" id="veh243_64800" to="-479797258#6" type="veh_passenger"/>
    <trip depart="65019.96" departLane="best" from="156148397#3" id="veh245_64800" to="25934381#0" type="veh_passenger"/>
    <trip depart="65020.86" departLane="best" from="-156148407#1" id="veh246_64800" to="479751358#0" type="veh_passenger"/>
    <trip depart="65021.76" departLane="best" from="-479797279" id="veh247_64800" to="166563429#5" type="veh_passenger"/>
    <trip depart="65022.66" departLane="best" from="-216060954#0" id="veh248_64800" to="1042449170" type="veh_passenger"/>
    <trip depart="65023.55" departLane="best" from="490718877#0" id="veh249_64800" to="1042449170" type="veh_passenger"/>
    <trip depart="65025.35" departLane="best" from="1036313338" id="veh251_64800" to="-25934385#0" type="veh_passenger"/>
    <trip depart="65026.25" departLane="best" from="-1039220886" id="veh252_64800" to="255416245#1" type="veh_passenger"/>
    <trip depart="65027.15" departLane="best" from="479797258#5" id="veh253_64800" to="538068339#5" type="veh_passenger"/>
    <trip depart="65028.04" departLane="best" from="479797271" id="veh254_64800" to="490216934#0" type="veh_passenger"/>
    <trip depart="65028.94" departLane="best" from="773159597#1" id="veh255_64800" to="-623891512" type="veh_passenger"/>
    <trip depart="65030.74" departLane="best" from="-479621763#11" id="veh257_64800" to="479797310#2" type="veh_passenger"/>
    <trip depart="65031.63" departLane="best" from="267535712" id="veh258_64800" to="100646248#1" type="veh_passenger"/>
    <trip depart="65032.53" departLane="best" from="480250287#2" id="veh259_64800" to="491628727#1" type="veh_passenger"/>
    <trip depart="65033.43" departLane="best" from="-480284570" id="veh260_64800" to="379986688#5" type="veh_passenger"/>
    <trip depart="65034.33" departLane="best" from="490165001#0" id="veh261_64800" to="-479621751#0" type="veh_passenger"/>
    <trip depart="65036.12" departLane="best" from="-475316652#3" id="veh263_64800" to="-159457890#2" type="veh_passenger"/>
    <trip depart="65037.02" departLane="best" from="1040882902#0" id="veh264_64800" to="479797318#0" type="veh_passenger"/>
    <trip depart="65037.92" departLane="best" from="774852739#0" id="veh265_64800" to="1042716327" type="veh_passenger"/>
    <trip depart="65039.71" departLane="best" from="479812143#3" id="veh267_64800" to="479613108#1" type="veh_passenger"/>
    <trip depart="65041.51" departLane="best" from="623891500#1" id="veh269_64800" to="321073251" type="veh_passenger"/>
    <trip depart="65042.41" departLane="best" from="491638590#0" id="veh270_64800" to="1041521601" type="veh_passenger"/>
    <trip depart="65043.31" departLane="best" from="159455874#5" id="veh271_64800" to="1042334799" type="veh_passenger"/>
    <trip depart="65044.2" departLane="best" from="248698674#2" id="veh272_64800" to="1041286369" type="veh_passenger"/>
    <trip depart="65046" departLane="best" from="-475316645#0" id="veh274_64800" to="774852739#1" type="veh_passenger"/>
    <trip depart="65046.9" departLane="best" from="479621763#6" id="veh275_64800" to="622804124#1" type="veh_passenger"/>
    <trip depart="65048.69" departLane="best" from="483726628#1" id="veh277_64800" to="775380332#4" type="veh_passenger"/>
    <trip depart="65049.59" departLane="best" from="1036341364#0" id="veh278_64800" to="61163785#3" type="veh_passenger"/>
    <trip depart="65050.49" departLane="best" from="25931907" id="veh279_64800" to="216060954#3" type="veh_passenger"/>
    <trip depart="65051.39" departLane="best" from="159455892#3" id="veh280_64800" to="481854596#2" type="veh_passenger"/>
    <trip depart="65052.28" departLane="best" from="1036341362#1" id="veh281_64800" to="623474399#2" type="veh_passenger"/>
    <trip depart="65053.18" departLane="best" from="622873931#0" id="veh282_64800" to="-320755658#2" type="veh_passenger"/>
    <trip depart="65054.08" departLane="best" from="665451328#4" id="veh283_64800" to="1036052086#2" type="veh_passenger"/>
    <trip depart="65054.98" departLane="best" from="216065940#2" id="veh284_64800" to="390383583#0" type="veh_passenger"/>
    <trip depart="65057.67" departLane="best" from="-856908280" id="veh287_64800" to="584750383#1" type="veh_passenger"/>
    <trip depart="65059.47" departLane="best" from="480250295#0" id="veh289_64800" to="1036341355" type="veh_passenger"/>
    <trip depart="65061.26" departLane="best" from="-256157283#0" id="veh291_64800" to="480284575" type="veh_passenger"/>
    <trip depart="65062.16" departLane="best" from="235427743#0" id="veh292_64800" to="491628725#0" type="veh_passenger"/>
    <trip depart="65063.06" departLane="best" from="479812143#3" id="veh293_64800" to="479751374#1" type="veh_passenger"/>
    <trip depart="65063.96" departLane="best" from="235436489#0" id="veh294_64800" to="583797089#2" type="veh_passenger"/>
    <trip depart="65064.85" departLane="best" from="-25934395#4" id="veh295_64800" to="100646269#0" type="veh_passenger"/>
    <trip depart="65065.75" departLane="best" from="479812147#0" id="veh296_64800" to="1039133060" type="veh_passenger"/>
    <trip depart="65067.55" departLane="best" from="25931028#4" id="veh298_64800" to="156148419#3" type="veh_passenger"/>
    <trip depart="65068.44" departLane="best" from="489924065" id="veh299_64800" to="1040929341" type="veh_passenger"/>
    <trip depart="65069.34" departLane="best" from="480250296#2" id="veh300_64800" to="1036341350#3" type="veh_passenger"/>
    <trip depart="65070.24" departLane="best" from="1036114082" id="veh301_64800" to="-479621763#9" type="veh_passenger"/>
    <trip depart="65071.14" departLane="best" from="-61163785#3" id="veh302_64800" to="-479621763#5" type="veh_passenger"/>
    <trip depart="65072.04" departLane="best" from="25931033" id="veh303_64800" to="491628725#3" type="veh_passenger"/>
    <trip depart="65072.93" departLane="best" from="-491638583#3" id="veh304_64800" to="100646242#1" type="veh_passenger"/>
    <trip depart="65075.63" departLane="best" from="1036360487#6" id="veh307_64800" to="-475316653#0" type="veh_passenger"/>
    <trip depart="65076.52" departLane="best" from="-622805764#1" id="veh308_64800" to="1032987570#1" type="veh_passenger"/>
    <trip depart="65079.22" departLane="best" from="854040751" id="veh311_64800" to="25931028#5" type="veh_passenger"/>
    <trip depart="65080.12" departLane="best" from="479816723#2" id="veh312_64800" to="-479797258#1" type="veh_passenger"/>
    <trip depart="65081.91" departLane="best" from="658130902" id="veh314_64800" to="26234533#2" type="veh_passenger"/>
    <trip depart="65082.81" departLane="best" from="224737850#2" id="veh315_64800" to="159453472#0" type="veh_passenger"/>
    <trip depart="65083.71" departLane="best" from="-490718877#2" id="veh316_64800" to="-248698662" type="veh_passenger"/>
    <trip depart="65085.5" departLane="best" from="618371797" id="veh318_64800" to="1046628053" type="veh_passenger"/>
    <trip depart="65086.4" departLane="best" from="-255416142#4" id="veh319_64800" to="479621745#1" type="veh_passenger"/>
    <trip depart="65088.2" departLane="best" from="267535712" id="veh321_64800" to="1039133060" type="veh_passenger"/>
    <trip depart="65089.09" departLane="best" from="994962121#3" id="veh322_64800" to="-479621763#11" type="veh_passenger"/>
    <trip depart="65089.99" departLane="best" from="491628725#1" id="veh323_64800" to="379986688#1" type="veh_passenger"/>
    <trip depart="65091.79" departLane="best" from="256157278#0" id="veh325_64800" to="159455875#2" type="veh_passenger"/>
    <trip depart="65092.69" departLane="best" from="166563429#5" id="veh326_64800" to="625413762#1" type="veh_passenger"/>
    <trip depart="65093.58" departLane="best" from="901285521" id="veh327_64800" to="1039133060" type="veh_passenger"/>
    <trip depart="65094.48" departLane="best" from="479621743#1" id="veh328_64800" to="379986768" type="veh_passenger"/>
    <trip depart="65095.38" departLane="best" from="489606084-AddedOnRampEdge" id="veh329_64800" to="765467137" type="veh_passenger"/>
    <trip depart="65096.28" departLane="best" from="-665451328#7" id="veh330_64800" to="-775599627#0" type="veh_passenger"/>
    <trip depart="65097.17" departLane="best" from="479797300#0" id="veh331_64800" to="-480282280" type="veh_passenger"/>
    <trip depart="65098.07" departLane="best" from="-480475790#0" id="veh332_64800" to="-256157278#0" type="veh_passenger"/>
    <trip depart="65098.97" departLane="best" from="-100646234" id="veh333_64800" to="159455875#2" type="veh_passenger"/>