<routes>
    <vType id="veh_passenger" vClass="passenger"/>
    <trip depart="3600" departLane="best" from="479751369#4" id="veh0_3600" to="-159455892#6" type="veh_passenger"/>
    <trip depart="3600.9" departLane="best" from="1036346145" id="veh1_3600" to="100646295#1" type="veh_passenger"/>
    <trip depart="3601.8" departLane="best" from="486825027#0" id="veh2_3600" to="479797313#7" type="veh_passenger"/>
    <trip depart="3602.69" departLane="best" from="665453544" id="veh3_3600" to="-320755659#0" type="veh_passenger"/>
    <trip depart="3604.49" departLane="best" from="100646220#1" id="veh5_3600" to="235424958#4" type="veh_passenger"/>
    <trip depart="3605.39" departLane="best" from="-155033028#1" id="veh6_3600" to="-623891502#0" type="veh_passenger"/>
    <trip depart="3606.28" departLane="best" from="479797258#4" id="veh7_3600" to="25931028#0" type="veh_passenger"/>
    <trip depart="3607.18" departLane="best" from="100646245#3" id="veh8_3600" to="321071861#2" type="veh_passenger"/>
    <trip depart="3608.98" departLane="best" from="1041521602" id="veh10_3600" to="-480276564" type="veh_passenger"/>
    <trip depart="3609.88" departLane="best" from="773876919#5" id="veh11_3600" to="1041187875-AddedOnRampEdge" type="veh_passenger"/>
    <trip depart="3611.67" departLane="best" from="623474397#3" id="veh13_3600" to="321073948" type="veh_passenger"/>
    <trip depart="3612.57" departLane="best" from="61163715#4" id="veh14_3600" to="481854591#1" type="veh_passenger"/>
    <trip depart="3613.47" departLane="best" from="25931033" id="veh15_3600" to="854001005#0" type="veh_passenger"/>
    <trip depart="3615.26" departLane="best" from="622809059#0" id="veh17_3600" to="475316653#4" type="veh_passenger"/>
    <trip depart="3616.16" departLane="best" from="625413783#2" id="veh18_3600" to="320755665" type="veh_passenger"/>
    <trip depart="3619.75" departLane="best" from="-379986746#0" id="veh22_3600" to="1036341357#0" type="veh_passenger"/>
    <trip depart="3621.55" departLane="best" from="1042693362#0" id="veh24_3600" to="-775380332#0" type="veh_passenger"/>
    <trip depart="3622.45" departLane="best" from="1036341360#1" id="veh25_3600" to="743386900" type="veh_passenger"/>
    <trip depart="3623.34" departLane="best" from="479797253#1" id="veh26_3600" to="379986751" type="veh_passenger"/>
    <trip depart="3625.14" departLane="best" from="-480252897#2" id="veh28_3600" to="1042449170" type="veh_passenger"/>
    <trip depart="3626.04" departLane="best" from="901285519#0" id="veh29_3600" to="479621763#4" type="veh_passenger"/>
    <trip depart="3627.83" departLane="best" from="623128861" id="veh31_3600" to="491638585" type="veh_passenger"/>
    <trip depart="3630.53" departLane="best" from="-775380332#5" id="veh34_3600" to="765449928" type="veh_passenger"/>
    <trip depart="3632.32" departLane="best" from="479797277#5" id="veh36_3600" to="1042716326" type="veh_passenger"/>
    <trip depart="3633.22" departLane="best" from="742718528#2" id="veh37_3600" to="166563426#4" type="veh_passenger"/>
    <trip depart="3634.12" departLane="best" from="1036341358#0" id="veh38_3600" to="1036060565" type="veh_passenger"/>
    <trip depart="3635.01" departLane="best" from="26234656#0" id="veh39_3600" to="1036099955" type="veh_passenger"/>
    <trip depart="3635.91" departLane="best" from="321073225#2" id="veh40_3600" to="684128578#0" type="veh_passenger"/>
    <trip depart="3636.81" departLane="best" from="156148402#2" id="veh41_3600" to="100646256#0" type="veh_passenger"/>
    <trip depart="3637.71" departLane="best" from="994962124#6" id="veh42_3600" to="235424974#1" type="veh_passenger"/>
    <trip depart="3639.5" departLane="best" from="-475316653#5" id="veh44_3600" to="479613108#2" type="veh_passenger"/>
    <trip depart="3640.4" departLane="best" from="583797089#1" id="veh45_3600" to="156148413#0" type="veh_passenger"/>
    <trip depart="3641.3" departLane="best" from="-248698662" id="veh46_3600" to="1042676039" type="veh_passenger"/>
    <trip depart="3642.2" departLane="best" from="994962124#3" id="veh47_3600" to="248698674#2" type="veh_passenger"/>
    <trip depart="3643.09" departLane="best" from="854001005#0" id="veh48_3600" to="625413762#3" type="veh_passenger"/>
    <trip depart="3643.99" departLane="best" from="-1036047409#0" id="veh49_3600" to="480284576#2" type="veh_passenger"/>
    <trip depart="3644.89" departLane="best" from="479797341#1-AddedOnRampEdge" id="veh50_3600" to="255416224#2" type="veh_passenger"/>
    <trip depart="3645.79" departLane="best" from="1036341360#0" id="veh51_3600" to="479621763#7" type="veh_passenger"/>
    <trip depart="3646.69" departLane="best" from="-475319370" id="veh52_3600" to="159453447#8" type="veh_passenger"/>
    <trip depart="3647.58" departLane="best" from="178774212#0" id="veh53_3600" to="773159597#3" type="veh_passenger"/>
    <trip depart="3649.38" departLane="best" from="248698668#12" id="veh55_3600" to="-490165001#1" type="veh_passenger"/>
    <trip depart="3651.17" departLane="best" from="1039159932#1" id="veh57_3600" to="479621763#11" type="veh_passenger"/>
    <trip depart="3652.97" departLane="best" from="491462355" id="veh59_3600" to="255416245#1" type="veh_passenger"/>
    <trip depart="3653.87" departLane="best" from="491638583#0" id="veh60_3600" to="255416142#2" type="veh_passenger"/>
    <trip depart="3654.77" departLane="best" from="-100646217#1" id="veh61_3600" to="1040911960" type="veh_passenger"/>
    <trip depart="3659.26" departLane="best" from="-256157283#0" id="veh66_3600" to="216065938#0" type="veh_passenger"/>
    <trip depart="3660.15" departLane="best" from="-248698668#10" id="veh67_3600" to="491628725#1-AddedOffRampEdge" type="veh_passenger"/>
    <trip depart="3661.05" departLane="best" from="491628725#1-AddedOffRampEdge" id="veh68_3600" to="-479797283#1" type="veh_passenger"/>
    <trip depart="3661.95" departLane="best" from="224737854#2" id="veh69_3600" to="25931028#3" type="veh_passenger"/>
    <trip depart="3664.64" departLane="best" from="25931909" id="veh72_3600" to="481854591#1" type="veh_passenger"/>
    <trip depart="3665.54" departLane="best" from="-625413768#3" id="veh73_3600" to="1039159932#1" type="veh_passenger"/>
    <trip depart="3666.44" departLane="best" from="994962124#2" id="veh74_3600" to="479797239#0" type="veh_passenger"/>
    <trip depart="3668.23" departLane="best" from="-479621745#7" id="veh76_3600" to="1032262905#1" type="veh_passenger"/>
    <trip depart="3669.13" departLane="best" from="1041504065" id="veh77_3600" to="321071861#1" type="veh_passenger"/>
    <trip depart="3670.03" departLane="best" from="1032665742" id="veh78_3600" to="100646260#0" type="veh_passenger"/>
    <trip depart="3670.93" departLane="best" from="-248698668#8" id="veh79_3600" to="479621745#7" type="veh_passenger"/>
    <trip depart="3672.72" departLane="best" from="625413768#2" id="veh81_3600" to="-255416245#0" type="veh_passenger"/>
    <trip depart="3674.52" departLane="best" from="-994875416" id="veh83_3600" to="-479797308" type="veh_passenger"/>
    <trip depart="3675.42" departLane="best" from="742727484#1" id="veh84_3600" to="26234533#0" type="veh_passenger"/>
    <trip depart="3676.31" departLane="best" from="224737852#6" id="veh85_3600" to="538068606-AddedOffRampEdge" type="veh_passenger"/>
    <trip depart="3677.21" departLane="best" from="-320758120" id="veh86_3600" to="156148432#0" type="veh_passenger"/>
    <trip depart="3679.01" departLane="best" from="481854588#3" id="veh88_3600" to="479797313#0" type="veh_passenger"/>
    <trip depart="3680.8" departLane="best" from="156148407#0" id="veh90_3600" to="1041235840#1-AddedOffRampEdge" type="veh_passenger"/>
    <trip depart="3681.7" departLane="best" from="625413783#2" id="veh91_3600" to="1036062887" type="veh_passenger"/>
    <trip depart="3682.6" departLane="best" from="-61163715#2" id="veh92_3600" to="159455874#9" type="veh_passenger"/>
    <trip depart="3683.5" departLane="best" from="159453472#0" id="veh93_3600" to="1036341357#1" type="veh_passenger"/>
    <trip depart="3685.29" departLane="best" from="166563429#6" id="veh95_3600" to="625413766#0" type="veh_passenger"/>
    <trip depart="3687.09" departLane="best" from="996026061#1" id="veh97_3600" to="622873931#7" type="veh_passenger"/>
    <trip depart="3687.99" departLane="best" from="854001000#1" id="veh98_3600" to="742727471" type="veh_passenger"/>
    <trip depart="3689.78" departLane="best" from="235427270" id="veh100_3600" to="100646217#3" type="veh_passenger"/>
    <trip depart="3692.47" departLane="best" from="1036341358#1" id="veh103_3600" to="538068606-AddedOffRampEdge" type="veh_passenger"/>
    <trip depart="3693.37" departLane="best" from="178774217#1" id="veh104_3600" to="156148417" type="veh_passenger"/>
    <trip depart="3695.17" departLane="best" from="25934395#5" id="veh106_3600" to="480283416#1" type="veh_passenger"/>
    <trip depart="3696.07" departLane="best" from="-480250296#0" id="veh107_3600" to="1036360487#6" type="veh_passenger"/>
    <trip depart="3696.96" departLane="best" from="854001000#0" id="veh108_3600" to="320758120" type="veh_passenger"/>
    <trip depart="3697.86" departLane="best" from="25931909" id="veh109_3600" to="490192688#5" type="veh_passenger"/>
    <trip depart="3698.76" departLane="best" from="-234517427#4" id="veh110_3600" to="320758139" type="veh_passenger"/>
    <trip depart="3699.66" departLane="best" from="248698670#0" id="veh111_3600" to="623891500#1" type="veh_passenger"/>
    <trip depart="3700.55" departLane="best" from="-480250299#0" id="veh112_3600" to="774852739#1" type="veh_passenger"/>
    <trip depart="3702.35" departLane="best" from="323563821#1" id="veh114_3600" to="479797313#4" type="veh_passenger"/>
    <trip depart="3705.04" departLane="best" from="323563821#0" id="veh117_3600" to="475316658#1" type="veh_passenger"/>
    <trip depart="3705.94" departLane="best" from="159453449#8" id="veh118_3600" to="320758139" type="veh_passenger"/>
    <trip depart="3706.84" departLane="best" from="256157278#1" id="veh119_3600" to="742727484#3" type="veh_passenger"/>
    <trip depart="3707.74" departLane="best" from="-658095569#2" id="veh120_3600" to="480276562" type="veh_passenger"/>
    <trip depart="3708.63" departLane="best" from="1036060565" id="veh121_3600" to="1042716327" type="veh_passenger"/>
    <trip depart="3709.53" departLane="best" from="479797313#7" id="veh122_3600" to="1038266651" type="veh_passenger"/>
    <trip depart="3710.43" departLane="best" from="1040925852" id="veh123_3600" to="490213894-AddedOffRampEdge" type="veh_passenger"/>
    <trip depart="3711.33" departLane="best" from="-248698670#2" id="veh124_3600" to="166563426#3" type="veh_passenger"/>
    <trip depart="3712.23" departLane="best" from="-255416142#1" id="veh125_3600" to="100646208" type="veh_passenger"/>
    <trip depart="3713.12" departLane="best" from="1036341358#1" id="veh126_3600" to="742727484#0" type="veh_passenger"/>
    <trip depart="3714.02" departLane="best" from="1042693361#1" id="veh127_3600" to="-480282281#0" type="veh_passenger"/>
    <trip depart="3714.92" departLane="best" from="622873931#7" id="veh128_3600" to="480250293#0" type="veh_passenger"/>
    <trip depart="3715.82" departLane="best" from="475316653#6" id="veh129_3600" to="854052897#4" type="veh_passenger"/>
    <trip depart="3716.71" departLane="best" from="479797277#2" id="veh130_3600" to="-100646260#1" type="veh_passenger"/>
    <trip depart="3717.61" departLane="best" from="618364867#1" id="veh131_3600" to="1038110939" type="veh_passenger"/>
    <trip depart="3718.51" departLane="best" from="479797310#0" id="veh132_3600" to="765449926#0" type="veh_passenger"/>
    <trip depart="3720.31" departLane="best" from="-475316645#2" id="veh134_3600" to="25931028#5" type="veh_passenger"/>
    <trip depart="3723" departLane="best" from="479621763#12" id="veh137_3600" to="1036099956#3" type="veh_passenger"/>
    <trip depart="3723.9" departLane="best" from="235427743#0" id="veh138_3600" to="696730624" type="veh_passenger"/>
    <trip depart="3724.8" departLane="best" from="623474397#0" id="veh139_3600" to="-379986688#2" type="veh_passenger"/>
    <trip depart="3725.69" departLane="best" from="159453472#4" id="veh140_3600" to="1036341355" type="veh_passenger"/>
    <trip depart="3726.59" departLane="best" from="-100646242#1" id="veh141_3600" to="491632371#2" type="veh_passenger"/>
    <trip depart="3727.49" departLane="best" from="479621774#2" id="veh142_3600" to="1036099953" type="veh_passenger"/>
    <trip depart="3728.39" departLane="best" from="489606090" id="veh143_3600" to="25931028#4" type="veh_passenger"/>
    <trip depart="3729.28" departLane="best" from="159455874#4" id="veh144_3600" to="-100646264#0" type="veh_passenger"/>
    <trip depart="3730.18" departLane="best" from="-255416153" id="veh145_3600" to="665451330#1" type="veh_passenger"/>
    <trip depart="3731.98" departLane="best" from="622873934#0" id="veh147_3600" to="320758130#1" type="veh_passenger"/>
    <trip depart="3732.88" departLane="best" from="-479816722#1" id="veh148_3600" to="-479797258#5" type="veh_passenger"/>
    <trip depart="3733.77" departLane="best" from="1040260533" id="veh149_3600" to="684128578#2" type="veh_passenger"/>
    <trip depart="3734.67" departLane="best" from="583797089#8" id="veh150_3600" to="625413762#3" type="veh_passenger"/>
    <trip depart="3735.57" departLane="best" from="684128578#0" id="veh151_3600" to="-775380332#4" type="veh_passenger"/>
    <trip depart="3737.36" departLane="best" from="491638583#6" id="veh153_3600" to="665451330#2" type="veh_passenger"/>
    <trip depart="3738.26" departLane="best" from="156148419#1" id="veh154_3600" to="475319371#0" type="veh_passenger"/>
    <trip depart="3740.06" departLane="best" from="625418511" id="veh156_3600" to="854040750" type="veh_passenger"/>
    <trip depart="3743.65" departLane="best" from="61163710#13" id="veh160_3600" to="625413783#2" type="veh_passenger"/>
    <trip depart="3745.44" departLane="best" from="538068340#1" id="veh162_3600" to="-479613101#1" type="veh_passenger"/>
    <trip depart="3747.24" departLane="best" from="100646256#1" id="veh164_3600" to="618371794" type="veh_passenger"/>
    <trip depart="3748.14" departLane="best" from="216060954#1" id="veh165_3600" to="1039133060" type="veh_passenger"/>
    <trip depart="3749.04" departLane="best" from="583797089#7" id="veh166_3600" to="1032987570#1" type="veh_passenger"/>
    <trip depart="3749.93" departLane="best" from="-1042698679" id="veh167_3600" to="-622804129#0" type="veh_passenger"/>
    <trip depart="3750.83" departLane="best" from="1041235840#0" id="veh168_3600" to="625413783#3" type="veh_passenger"/>
    <trip depart="3751.73" departLane="best" from="479751865#1" id="veh169_3600" to="1042728028#1" type="veh_passenger"/>
    <trip depart="3752.63" departLane="best" from="854052892-AddedOffRampEdge" id="veh170_3600" to="255416223#1" type="veh_passenger"/>
    <trip depart="3753.52" departLane="best" from="764267604" id="veh171_3600" to="-479621752#0" type="veh_passenger"/>
    <trip depart="3754.42" departLane="best" from="854001002#1" id="veh172_3600" to="-490165001#1" type="veh_passenger"/>
    <trip depart="3755.32" departLane="best" from="775122579#1" id="veh173_3600" to="1036114082" type="veh_passenger"/>
    <trip depart="3756.22" departLane="best" from="-475316653#0" id="veh174_3600" to="159453447#8" type="veh_passenger"/>
    <trip depart="3757.12" departLane="best" from="481854585" id="veh175_3600" to="1039159937" type="veh_passenger"/>
    <trip depart="3758.91" departLane="best" from="123423117#1" id="veh177_3600" to="320755661#1" type="veh_passenger"/>
    <trip depart="3759.81" departLane="best" from="1036338535" id="veh178_3600" to="480250299#1" type="veh_passenger"/>
    <trip depart="3760.71" departLane="best" from="-100646220#2" id="veh179_3600" to="742727470" type="veh_passenger"/>
    <trip depart="3762.5" departLane="best" from="489606090" id="veh181_3600" to="479797310#7" type="veh_passenger"/>
    <trip depart="3763.4" departLane="best" from="1042449169#1" id="veh182_3600" to="-255416229#2" type="veh_passenger"/>
    <trip depart="3765.2" departLane="best" from="1040882903" id="veh184_3600" to="623138417" type="veh_passenger"/>
    <trip depart="3766.09" departLane="best" from="480284576#1" id="veh185_3600" to="1038324580" type="veh_passenger"/>
    <trip depart="3766.99" departLane="best" from="1040591005" id="veh186_3600" to="145126347" type="veh_passenger"/>
    <trip depart="3767.89" departLane="best" from="156148404#3" id="veh187_3600" to="1036360487#5" type="veh_passenger"/>
    <trip depart="3768.79" departLane="best" from="-479621763#5" id="veh188_3600" to="156148404#2" type="veh_passenger"/>
    <trip depart="3769.69" departLane="best" from="764267605" id="veh189_3600" to="479797318#0" type="veh_passenger"/>
    <trip depart="3771.48" departLane="best" from="1039159935" id="veh191_3600" to="25931028#2" type="veh_passenger"/>
    <trip depart="3772.38" departLane="best" from="-100646217#0" id="veh192_3600" to="1036342983" type="veh_passenger"/>
    <trip depart="3773.28" departLane="best" from="159455874#8" id="veh193_3600" to="320758122#1" type="veh_passenger"/>
    <trip depart="3775.07" departLane="best" from="166563429#4" id="veh195_3600" to="100646217#3" type="veh_passenger"/>
    <trip depart="3775.97" departLane="best" from="224737854#0" id="veh196_3600" to="684135634#2" type="veh_passenger"/>
    <trip depart="3776.87" departLane="best" from="583797089#8" id="veh197_3600" to="-483726628#0" type="veh_passenger"/>
    <trip depart="3778.66" departLane="best" from="479621758#4" id="veh199_3600" to="1041187875" type="veh_passenger"/>
    <trip depart="3780.46" departLane="best" from="479797318#4" id="veh201_3600" to="1032262905#1" type="veh_passenger"/>
    <trip depart="3781.36" departLane="best" from="-623891515#1" id="veh202_3600" to="-159455892#4" type="veh_passenger"/>
    <trip depart="3783.15" departLane="best" from="623474399#3" id="veh204_3600" to="-255416251#2" type="veh_passenger"/>
    <trip depart="3784.05" departLane="best" from="159453447#12" id="veh205_3600" to="479621745#2" type="veh_passenger"/>
    <trip depart="3784.95" departLane="best" from="-622873929#0" id="veh206_3600" to="479816723#0" type="veh_passenger"/>
    <trip depart="3785.85" departLane="best" from="245763347#0" id="veh207_3600" to="1036052086#2" type="veh_passenger"/>
    <trip depart="3786.74" departLane="best" from="479797279" id="veh208_3600" to="-100646248#2" type="veh_passenger"/>
    <trip depart="3788.54" departLane="best" from="-475316645#2" id="veh210_3600" to="156148419#2" type="veh_passenger"/>
    <trip depart="3789.44" departLane="best" from="-483796488#0" id="veh211_3600" to="773876919#3" type="veh_passenger"/>
    <trip depart="3792.13" departLane="best" from="178774219#2" id="veh214_3600" to="61163710#1" type="veh_passenger"/>
    <trip depart="3793.93" departLane="best" from="323563821#2" id="veh216_3600" to="773159596#1" type="veh_passenger"/>
    <trip depart="3794.82" departLane="best" from="665453544" id="veh217_3600" to="47070283#3" type="veh_passenger"/>
    <trip depart="3795.72" departLane="best" from="480284575" id="veh218_3600" to="235424958#4" type="veh_passenger"/>
    <trip depart="3796.62" departLane="best" from="622873931#0" id="veh219_3600" to="25931028#2" type="veh_passenger"/>
    <trip depart="3797.52" departLane="best" from="665453553" id="veh220_3600" to="489629072#3" type="veh_passenger"/>
    <trip depart="3799.31" departLane="best" from="1036079534" id="veh222_3600" to="479621758#3" type="veh_passenger"/>
    <trip depart="3802.01" departLane="best" from="-255416209#0" id="veh225_3600" to="1036342983" type="veh_passenger"/>
    <trip depart="3803.8" departLane="best" from="25931909" id="veh227_3600" to="-479797345#1" type="veh_passenger"/>
    <trip depart="3806.5" departLane="best" from="156148419#4" id="veh230_3600" to="256157279" type="veh_passenger"/>
    <trip depart="3809.19" departLane="best" from="321073225#1" id="veh233_3600" to="479816717#0" type="veh_passenger"/>
    <trip depart="3810.09" departLane="best" from="625397297" id="veh234_3600" to="491628727#0" type="veh_passenger"/>
    <trip depart="3810.98" departLane="best" from="1042716324" id="veh235_3600" to="-100646252#0" type="veh_passenger"/>
    <trip depart="3811.88" departLane="best" from="1041544550#0" id="veh236_3600" to="490216931#1" type="veh_passenger"/>
    <trip depart="3812.78" departLane="best" from="623891513" id="veh237_3600" to="773159597#3" type="veh_passenger"/>
    <trip depart="3813.68" departLane="best" from="159453449#7" id="veh238_3600" to="490192688#3-AddedOnRampEdge" type="veh_passenger"/>
    <trip depart="3814.58" departLane="best" from="25931950-AddedOffRampEdge" id="veh239_3600" to="321073948" type="veh_passenger"/>
    <trip depart="3816.37" departLane="best" from="1041504064" id="veh241_3600" to="479797321" type="veh_passenger"/>
    <trip depart="3818.17" departLane="best" from="224737849#3" id="veh243_3600" to="-479797258#6" type="veh_passenger"/>
    <trip depart="3819.96" departLane="best" from="156148397#3" id="veh245_3600" to="25934381#0" type="veh_passenger"/>
    <trip depart="3820.86" departLane="best" from="-156148407#1" id="veh246_3600" to="479751358#0" type="veh_passenger"/>
    <trip depart="3821.76" departLane="best" from="-479797279" id="veh247_3600" to="166563429#5" type="veh_passenger"/>
    <trip depart="3822.66" departLane="best" from="-216060954#0" id="veh248_3600" to="1042449170" type="veh_passenger"/>
    <trip depart="3823.55" departLane="best" from="490718877#0" id="veh249_3600" to="1042449170" type="veh_passenger"/>
    <trip depart="3825.35" departLane="best" from="1036313338" id="veh251_3600" to="-25934385#0" type="veh_passenger"/>
    <trip depart="3826.25" departLane="best" from="-1039220886" id="veh252_3600" to="255416245#1" type="veh_passenger"/>
    <trip depart="3827.15" departLane="best" from="479797258#5" id="veh253_3600" to="538068339#5" type="veh_passenger"/>
    <trip depart="3828.04" departLane="best" from="479797271" id="veh254_3600" to="490216934#0" type="veh_passenger"/>
    <trip depart="3828.94" departLane="best" from="773159597#1" id="veh255_3600" to="-623891512" type="veh_passenger"/>
    <trip depart="3830.74" departLane="best" from="-479621763#11" id="veh257_3600" to="479797310#2" type="veh_passenger"/>
    <trip depart="3831.63" departLane="best" from="267535712" id="veh258_3600" to="100646248#1" type="veh_passenger"/>
    <trip depart="3832.53" departLane="best" from="480250287#2" id="veh259_3600" to="491628727#1" type="veh_passenger"/>
    <trip depart="3833.43" departLane="best" from="-480284570" id="veh260_3600" to="379986688#5" type="veh_passenger"/>
    <trip depart="3834.33" departLane="best" from="490165001#0" id="veh261_3600" to="-479621751#0" type="veh_passenger"/>
    <trip depart="3836.12" departLane="best" from="-475316652#3" id="veh263_3600" to="-159457890#2" type="veh_passenger"/>
    <trip depart="3837.02" departLane="best" from="1040882902#0" id="veh264_3600" to="479797318#0" type="veh_passenger"/>
    <trip depart="3837.92" departLane="best" from="774852739#0" id="veh265_3600" to="1042716327" type="veh_passenger"/>
    <trip depart="3839.71" departLane="best" from="479812143#3" id="veh267_3600" to="479613108#1" type="veh_passenger"/>
    <trip depart="3841.51" departLane="best" from="623891500#1" id="veh269_3600" to="321073251" type="veh_passenger"/>
    <trip depart="3842.41" departLane="best" from="491638590#0" id="veh270_3600" to="1041521601" type="veh_passenger"/>
    <trip depart="3843.31" departLane="best" from="159455874#5" id="veh271_3600" to="1042334799" type="veh_passenger"/>
    <trip depart="3844.2" departLane="best" from="248698674#2" id="veh272_3600" to="1041286369" type="veh_passenger"/>
    <trip depart="3846" departLane="best" from="-475316645#0" id="veh274_3600" to="774852739#1" type="veh_passenger"/>
    <trip depart="3846.9" departLane="best" from="479621763#6" id="veh275_3600" to="622804124#1" type="veh_passenger"/>
    <trip depart="3848.69" departLane="best" from="483726628#1" id="veh277_3600" to="775380332#4" type="veh_passenger"/>
    <trip depart="3849.59" departLane="best" from="1036341364#0" id="veh278_3600" to="61163785#3" type="veh_passenger"/>
    <trip depart="3850.49" departLane="best" from="25931907" id="veh279_3600" to="216060954#3" type="veh_passenger"/>
    <trip depart="3851.39" departLane="best" from="159455892#3" id="veh280_3600" to="481854596#2" type="veh_passenger"/>
    <trip depart="3852.28" departLane="best" from="1036341362#1" id="veh281_3600" to="623474399#2" type="veh_passenger"/>
    <trip depart="3853.18" departLane="best" from="622873931#0" id="veh282_3600" to="-320755658#2" type="veh_passenger"/>
    <trip depart="3854.08" departLane="best" from="665451328#4" id="veh283_3600" to="1036052086#2" type="veh_passenger"/>
    <trip depart="3854.98" departLane="best" from="216065940#2" id="veh284_3600" to="390383583#0" type="veh_passenger"/>
    <trip depart="3857.67" departLane="best" from="-856908280" id="veh287_3600" to="584750383#1" type="veh_passenger"/>
    <trip depart="3859.4700000000003" departLane="best" from="480250295#0" id="veh289_3600" to="1036341355" type="veh_passenger"/>
    <trip depart="3861.26" departLane="best" from="-256157283#0" id="veh291_3600" to="480284575" type="veh_passenger"/>
    <trip depart="3862.16" departLane="best" from="235427743#0" id="veh292_3600" to="491628725#0" type="veh_passenger"/>
    <trip depart="3863.06" departLane="best" from="479812143#3" id="veh293_3600" to="479751374#1" type="veh_passenger"/>
    <trip depart="3863.96" departLane="best" from="235436489#0" id="veh294_3600" to="583797089#2" type="veh_passenger"/>
    <trip depart="3864.85" departLane="best" from="-25934395#4" id="veh295_3600" to="100646269#0" type="veh_passenger"/>
    <trip depart="3865.75" departLane="best" from="479812147#0" id="veh296_3600" to="1039133060" type="veh_passenger"/>
    <trip depart="3867.55" departLane="best" from="25931028#4" id="veh298_3600" to="156148419#3" type="veh_passenger"/>
    <trip depart="3868.44" departLane="best" from="489924065" id="veh299_3600" to="1040929341" type="veh_passenger"/>
    <trip depart="3869.34" departLane="best" from="480250296#2" id="veh300_3600" to="1036341350#3" type="veh_passenger"/>
    <trip depart="3870.24" departLane="best" from="1036114082" id="veh301_3600" to="-479621763#9" type="veh_passenger"/>
    <trip depart="3871.14" departLane="best" from="-61163785#3" id="veh302_3600" to="-479621763#5" type="veh_passenger"/>
    <trip depart="3872.04" departLane="best" from="25931033" id="veh303_3600" to="491628725#3" type="veh_passenger"/>
    <trip depart="3872.93" departLane="best" from="-491638583#3" id="veh304_3600" to="100646242#1" type="veh_passenger"/>
    <trip depart="3875.63" departLane="best" from="1036360487#6" id="veh307_3600" to="-475316653#0" type="veh_passenger"/>
    <trip depart="3876.52" departLane="best" from="-622805764#1" id="veh308_3600" to="1032987570#1" type="veh_passenger"/>
    <trip depart="3879.2200000000003" departLane="best" from="854040751" id="veh311_3600" to="25931028#5" type="veh_passenger"/>
    <trip depart="3880.12" departLane="best" from="479816723#2" id="veh312_3600" to="-479797258#1" type="veh_passenger"/>
    <trip depart="3881.91" departLane="best" from="658130902" id="veh314_3600" to="26234533#2" type="veh_passenger"/>
    <trip depart="3882.81" departLane="best" from="224737850#2" id="veh315_3600" to="159453472#0" type="veh_passenger"/>
    <trip depart="3883.71" departLane="best" from="-490718877#2" id="veh316_3600" to="-248698662" type="veh_passenger"/>
    <trip depart="3885.5" departLane="best" from="618371797" id="veh318_3600" to="1046628053" type="veh_passenger"/>
    <trip depart="3886.4" departLane="best" from="-255416142#4" id="veh319_3600" to="479621745#1" type="veh_passenger"/>
    <trip depart="3888.2" departLane="best" from="267535712" id="veh321_3600" to="1039133060" type="veh_passenger"/>
    <trip depart="3889.09" departLane="best" from="994962121#3" id="veh322_3600" to="-479621763#11" type="veh_passenger"/>
    <trip depart="3889.99" departLane="best" from="491628725#1" id="veh323_3600" to="379986688#1" type="veh_passenger"/>
    <trip depart="3891.79" departLane="best" from="256157278#0" id="veh325_3600" to="159455875#2" type="veh_passenger"/>
    <trip depart="3892.69" departLane="best" from="166563429#5" id="veh326_3600" to="625413762#1" type="veh_passenger"/>
    <trip depart="3893.58" departLane="best" from="901285521" id="veh327_3600" to="1039133060" type="veh_passenger"/>
    <trip depart="3894.48" departLane="best" from="479621743#1" id="veh328_3600" to="379986768" type="veh_passenger"/>
    <trip depart="3895.38" departLane="best" from="489606084-AddedOnRampEdge" id="veh329_3600" to="765467137" type="veh_passenger"/>
    <trip depart="3896.2799999999997" departLane="best" from="-665451328#7" id="veh330_3600" to="-775599627#0" type="veh_passenger"/>
    <trip depart="3897.17" departLane="best" from="479797300#0" id="veh331_3600" to="-480282280" type="veh_passenger"/>
    <trip depart="3898.07" departLane="best" from="-480475790#0" id="veh332_3600" to="-256157278#0" type="veh_passenger"/>
    <trip depart="3898.9700000000003" departLane="best" from="-100646234" id="veh333_3600" to="159455875#2" type="veh_passenger"/>
    <trip depart="3899.87" departLane="best" from="323563821#0" id="veh334_3600" to="1036360484" type="veh_passenger"/>
    <trip depart="3900.77" departLane="best" from="1032987570#0" id="veh335_3600" to="480250296#3" type="veh_passenger"/>
    <trip depart="3901.66" departLane="best" from="480250298#0" id="veh336_3600" to="159455892#3" type="veh_passenger"/>
    <trip depart="3904.36" departLane="best" from="479797300#3" id="veh339_3600" to="742727484#1" type="veh_passenger"/>