<routes>
    <vType id="veh_passenger" vClass="passenger"/>
    <trip depart="57600" departLane="best" from="479751369#4" id="veh0_57600" to="-159455892#6" type="veh_passenger"/>
    <trip depart="57600.9" departLane="best" from="1036346145" id="veh1_57600" to="100646295#1" type="veh_passenger"/>
    <trip depart="57601.8" departLane="best" from="486825027#0" id="veh2_57600" to="479797313#7" type="veh_passenger"/>
    <trip depart="57602.69" departLane="best" from="665453544" id="veh3_57600" to="-320755659#0" type="veh_passenger"/>
    <trip depart="57604.49" departLane="best" from="100646220#1" id="veh5_57600" to="235424958#4" type="veh_passenger"/>
    <trip depart="57605.39" departLane="best" from="-155033028#1" id="veh6_57600" to="-623891502#0" type="veh_passenger"/>
    <trip depart="57606.28" departLane="best" from="479797258#4" id="veh7_57600" to="25931028#0" type="veh_passenger"/>
    <trip depart="57607.18" departLane="best" from="100646245#3" id="veh8_57600" to="321071861#2" type="veh_passenger"/>
    <trip depart="57608.98" departLane="best" from="1041521602" id="veh10_57600" to="-480276564" type="veh_passenger"/>
    <trip depart="57609.88" departLane="best" from="773876919#5" id="veh11_57600" to="1041187875-AddedOnRampEdge" type="veh_passenger"/>
    <trip depart="57611.67" departLane="best" from="623474397#3" id="veh13_57600" to="321073948" type="veh_passenger"/>
    <trip depart="57612.57" departLane="best" from="61163715#4" id="veh14_57600" to="481854591#1" type="veh_passenger"/>
    <trip depart="57613.47" departLane="best" from="25931033" id="veh15_57600" to="854001005#0" type="veh_passenger"/>
    <trip depart="57615.26" departLane="best" from="622809059#0" id="veh17_57600" to="475316653#4" type="veh_passenger"/>
    <trip depart="57616.16" departLane="best" from="625413783#2" id="veh18_57600" to="320755665" type="veh_passenger"/>
    <trip depart="57619.75" departLane="best" from="-379986746#0" id="veh22_57600" to="1036341357#0" type="veh_passenger"/>
    <trip depart="57621.55" departLane="best" from="1042693362#0" id="veh24_57600" to="-775380332#0" type="veh_passenger"/>
    <trip depart="57622.45" departLane="best" from="1036341360#1" id="veh25_57600" to="743386900" type="veh_passenger"/>
    <trip depart="57623.34" departLane="best" from="479797253#1" id="veh26_57600" to="379986751" type="veh_passenger"/>
    <trip depart="57625.14" departLane="best" from="-480252897#2" id="veh28_57600" to="1042449170" type="veh_passenger"/>
    <trip depart="57626.04" departLane="best" from="901285519#0" id="veh29_57600" to="479621763#4" type="veh_passenger"/>
    <trip depart="57627.83" departLane="best" from="623128861" id="veh31_57600" to="491638585" type="veh_passenger"/>
    <trip depart="57630.53" departLane="best" from="-775380332#5" id="veh34_57600" to="765449928" type="veh_passenger"/>
    <trip depart="57632.32" departLane="best" from="479797277#5" id="veh36_57600" to="1042716326" type="veh_passenger"/>
    <trip depart="57633.22" departLane="best" from="742718528#2" id="veh37_57600" to="166563426#4" type="veh_passenger"/>
    <trip depart="57634.12" departLane="best" from="1036341358#0" id="veh38_57600" to="1036060565" type="veh_passenger"/>
    <trip depart="57635.01" departLane="best" from="26234656#0" id="veh39_57600" to="1036099955" type="veh_passenger"/>
    <trip depart="57635.91" departLane="best" from="321073225#2" id="veh40_57600" to="684128578#0" type="veh_passenger"/>
    <trip depart="57636.81" departLane="best" from="156148402#2" id="veh41_57600" to="100646256#0" type="veh_passenger"/>
    <trip depart="57637.71" departLane="best" from="994962124#6" id="veh42_57600" to="235424974#1" type="veh_passenger"/>
    <trip depart="57639.5" departLane="best" from="-475316653#5" id="veh44_57600" to="479613108#2" type="veh_passenger"/>
    <trip depart="57640.4" departLane="best" from="583797089#1" id="veh45_57600" to="156148413#0" type="veh_passenger"/>
    <trip depart="57641.3" departLane="best" from="-248698662" id="veh46_57600" to="1042676039" type="veh_passenger"/>
    <trip depart="57642.2" departLane="best" from="994962124#3" id="veh47_57600" to="248698674#2" type="veh_passenger"/>
    <trip depart="57643.09" departLane="best" from="854001005#0" id="veh48_57600" to="625413762#3" type="veh_passenger"/>
    <trip depart="57643.99" departLane="best" from="-1036047409#0" id="veh49_57600" to="480284576#2" type="veh_passenger"/>
    <trip depart="57644.89" departLane="best" from="479797341#1-AddedOnRampEdge" id="veh50_57600" to="255416224#2" type="veh_passenger"/>
    <trip depart="57645.79" departLane="best" from="1036341360#0" id="veh51_57600" to="479621763#7" type="veh_passenger"/>
    <trip depart="57646.69" departLane="best" from="-475319370" id="veh52_57600" to="159453447#8" type="veh_passenger"/>
    <trip depart="57647.58" departLane="best" from="178774212#0" id="veh53_57600" to="773159597#3" type="veh_passenger"/>
    <trip depart="57649.38" departLane="best" from="248698668#12" id="veh55_57600" to="-490165001#1" type="veh_passenger"/>
    <trip depart="57651.17" departLane="best" from="1039159932#1" id="veh57_57600" to="479621763#11" type="veh_passenger"/>
    <trip depart="57652.97" departLane="best" from="491462355" id="veh59_57600" to="255416245#1" type="veh_passenger"/>
    <trip depart="57653.87" departLane="best" from="491638583#0" id="veh60_57600" to="255416142#2" type="veh_passenger"/>
    <trip depart="57654.77" departLane="best" from="-100646217#1" id="veh61_57600" to="1040911960" type="veh_passenger"/>
    <trip depart="57659.26" departLane="best" from="-256157283#0" id="veh66_57600" to="216065938#0" type="veh_passenger"/>
    <trip depart="57660.15" departLane="best" from="-248698668#10" id="veh67_57600" to="491628725#1-AddedOffRampEdge" type="veh_passenger"/>
    <trip depart="57661.05" departLane="best" from="491628725#1-AddedOffRampEdge" id="veh68_57600" to="-479797283#1" type="veh_passenger"/>
    <trip depart="57661.95" departLane="best" from="224737854#2" id="veh69_57600" to="25931028#3" type="veh_passenger"/>
    <trip depart="57664.64" departLane="best" from="25931909" id="veh72_57600" to="481854591#1" type="veh_passenger"/>
    <trip depart="57665.54" departLane="best" from="-625413768#3" id="veh73_57600" to="1039159932#1" type="veh_passenger"/>
    <trip depart="57666.44" departLane="best" from="994962124#2" id="veh74_57600" to="479797239#0" type="veh_passenger"/>
    <trip depart="57668.23" departLane="best" from="-479621745#7" id="veh76_57600" to="1032262905#1" type="veh_passenger"/>
    <trip depart="57669.13" departLane="best" from="1041504065" id="veh77_57600" to="321071861#1" type="veh_passenger"/>
    <trip depart="57670.03" departLane="best" from="1032665742" id="veh78_57600" to="100646260#0" type="veh_passenger"/>
    <trip depart="57670.93" departLane="best" from="-248698668#8" id="veh79_57600" to="479621745#7" type="veh_passenger"/>
    <trip depart="57672.72" departLane="best" from="625413768#2" id="veh81_57600" to="-255416245#0" type="veh_passenger"/>
    <trip depart="57674.52" departLane="best" from="-994875416" id="veh83_57600" to="-479797308" type="veh_passenger"/>
    <trip depart="57675.42" departLane="best" from="742727484#1" id="veh84_57600" to="26234533#0" type="veh_passenger"/>
    <trip depart="57676.31" departLane="best" from="224737852#6" id="veh85_57600" to="538068606-AddedOffRampEdge" type="veh_passenger"/>
    <trip depart="57677.21" departLane="best" from="-320758120" id="veh86_57600" to="156148432#0" type="veh_passenger"/>
    <trip depart="57679.01" departLane="best" from="481854588#3" id="veh88_57600" to="479797313#0" type="veh_passenger"/>
    <trip depart="57680.8" departLane="best" from="156148407#0" id="veh90_57600" to="1041235840#1-AddedOffRampEdge" type="veh_passenger"/>
    <trip depart="57681.7" departLane="best" from="625413783#2" id="veh91_57600" to="1036062887" type="veh_passenger"/>
    <trip depart="57682.6" departLane="best" from="-61163715#2" id="veh92_57600" to="159455874#9" type="veh_passenger"/>
    <trip depart="57683.5" departLane="best" from="159453472#0" id="veh93_57600" to="1036341357#1" type="veh_passenger"/>
    <trip depart="57685.29" departLane="best" from="166563429#6" id="veh95_57600" to="625413766#0" type="veh_passenger"/>
    <trip depart="57687.09" departLane="best" from="996026061#1" id="veh97_57600" to="622873931#7" type="veh_passenger"/>
    <trip depart="57687.99" departLane="best" from="854001000#1" id="veh98_57600" to="742727471" type="veh_passenger"/>
    <trip depart="57689.78" departLane="best" from="235427270" id="veh100_57600" to="100646217#3" type="veh_passenger"/>
    <trip depart="57692.47" departLane="best" from="1036341358#1" id="veh103_57600" to="538068606-AddedOffRampEdge" type="veh_passenger"/>
    <trip depart="57693.37" departLane="best" from="178774217#1" id="veh104_57600" to="156148417" type="veh_passenger"/>
    <trip depart="57695.17" departLane="best" from="25934395#5" id="veh106_57600" to="480283416#1" type="veh_passenger"/>
    <trip depart="57696.07" departLane="best" from="-480250296#0" id="veh107_57600" to="1036360487#6" type="veh_passenger"/>
    <trip depart="57696.96" departLane="best" from="854001000#0" id="veh108_57600" to="320758120" type="veh_passenger"/>
    <trip depart="57697.86" departLane="best" from="25931909" id="veh109_57600" to="490192688#5" type="veh_passenger"/>
    <trip depart="57698.76" departLane="best" from="-234517427#4" id="veh110_57600" to="320758139" type="veh_passenger"/>
    <trip depart="57699.66" departLane="best" from="248698670#0" id="veh111_57600" to="623891500#1" type="veh_passenger"/>
    <trip depart="57700.55" departLane="best" from="-480250299#0" id="veh112_57600" to="774852739#1" type="veh_passenger"/>
    <trip depart="57702.35" departLane="best" from="323563821#1" id="veh114_57600" to="479797313#4" type="veh_passenger"/>
    <trip depart="57705.04" departLane="best" from="323563821#0" id="veh117_57600" to="475316658#1" type="veh_passenger"/>
    <trip depart="57705.94" departLane="best" from="159453449#8" id="veh118_57600" to="320758139" type="veh_passenger"/>
    <trip depart="57706.84" departLane="best" from="256157278#1" id="veh119_57600" to="742727484#3" type="veh_passenger"/>
    <trip depart="57707.74" departLane="best" from="-658095569#2" id="veh120_57600" to="480276562" type="veh_passenger"/>
    <trip depart="57708.63" departLane="best" from="1036060565" id="veh121_57600" to="1042716327" type="veh_passenger"/>
    <trip depart="57709.53" departLane="best" from="479797313#7" id="veh122_57600" to="1038266651" type="veh_passenger"/>
    <trip depart="57710.43" departLane="best" from="1040925852" id="veh123_57600" to="490213894-AddedOffRampEdge" type="veh_passenger"/>
    <trip depart="57711.33" departLane="best" from="-248698670#2" id="veh124_57600" to="166563426#3" type="veh_passenger"/>
    <trip depart="57712.23" departLane="best" from="-255416142#1" id="veh125_57600" to="100646208" type="veh_passenger"/>
    <trip depart="57713.12" departLane="best" from="1036341358#1" id="veh126_57600" to="742727484#0" type="veh_passenger"/>
    <trip depart="57714.02" departLane="best" from="1042693361#1" id="veh127_57600" to="-480282281#0" type="veh_passenger"/>
    <trip depart="57714.92" departLane="best" from="622873931#7" id="veh128_57600" to="480250293#0" type="veh_passenger"/>
    <trip depart="57715.82" departLane="best" from="475316653#6" id="veh129_57600" to="854052897#4" type="veh_passenger"/>
    <trip depart="57716.71" departLane="best" from="479797277#2" id="veh130_57600" to="-100646260#1" type="veh_passenger"/>
    <trip depart="57717.61" departLane="best" from="618364867#1" id="veh131_57600" to="1038110939" type="veh_passenger"/>
    <trip depart="57718.51" departLane="best" from="479797310#0" id="veh132_57600" to="765449926#0" type="veh_passenger"/>
    <trip depart="57720.31" departLane="best" from="-475316645#2" id="veh134_57600" to="25931028#5" type="veh_passenger"/>
    <trip depart="57723" departLane="best" from="479621763#12" id="veh137_57600" to="1036099956#3" type="veh_passenger"/>
    <trip depart="57723.9" departLane="best" from="235427743#0" id="veh138_57600" to="696730624" type="veh_passenger"/>
    <trip depart="57724.8" departLane="best" from="623474397#0" id="veh139_57600" to="-379986688#2" type="veh_passenger"/>
    <trip depart="57725.69" departLane="best" from="159453472#4" id="veh140_57600" to="1036341355" type="veh_passenger"/>
    <trip depart="57726.59" departLane="best" from="-100646242#1" id="veh141_57600" to="491632371#2" type="veh_passenger"/>
    <trip depart="57727.49" departLane="best" from="479621774#2" id="veh142_57600" to="1036099953" type="veh_passenger"/>
    <trip depart="57728.39" departLane="best" from="489606090" id="veh143_57600" to="25931028#4" type="veh_passenger"/>
    <trip depart="57729.28" departLane="best" from="159455874#4" id="veh144_57600" to="-100646264#0" type="veh_passenger"/>
    <trip depart="57730.18" departLane="best" from="-255416153" id="veh145_57600" to="665451330#1" type="veh_passenger"/>
    <trip depart="57731.98" departLane="best" from="622873934#0" id="veh147_57600" to="320758130#1" type="veh_passenger"/>
    <trip depart="57732.88" departLane="best" from="-479816722#1" id="veh148_57600" to="-479797258#5" type="veh_passenger"/>
    <trip depart="57733.77" departLane="best" from="1040260533" id="veh149_57600" to="684128578#2" type="veh_passenger"/>
    <trip depart="57734.67" departLane="best" from="583797089#8" id="veh150_57600" to="625413762#3" type="veh_passenger"/>
    <trip depart="57735.57" departLane="best" from="684128578#0" id="veh151_57600" to="-775380332#4" type="veh_passenger"/>
    <trip depart="57737.36" departLane="best" from="491638583#6" id="veh153_57600" to="665451330#2" type="veh_passenger"/>
    <trip depart="57738.26" departLane="best" from="156148419#1" id="veh154_57600" to="475319371#0" type="veh_passenger"/>
    <trip depart="57740.06" departLane="best" from="625418511" id="veh156_57600" to="854040750" type="veh_passenger"/>
    <trip depart="57743.65" departLane="best" from="61163710#13" id="veh160_57600" to="625413783#2" type="veh_passenger"/>
    <trip depart="57745.44" departLane="best" from="538068340#1" id="veh162_57600" to="-479613101#1" type="veh_passenger"/>
    <trip depart="57747.24" departLane="best" from="100646256#1" id="veh164_57600" to="618371794" type="veh_passenger"/>
    <trip depart="57748.14" departLane="best" from="216060954#1" id="veh165_57600" to="1039133060" type="veh_passenger"/>
    <trip depart="57749.04" departLane="best" from="583797089#7" id="veh166_57600" to="1032987570#1" type="veh_passenger"/>
    <trip depart="57749.93" departLane="best" from="-1042698679" id="veh167_57600" to="-622804129#0" type="veh_passenger"/>
    <trip depart="57750.83" departLane="best" from="1041235840#0" id="veh168_57600" to="625413783#3" type="veh_passenger"/>
    <trip depart="57751.73" departLane="best" from="479751865#1" id="veh169_57600" to="1042728028#1" type="veh_passenger"/>
    <trip depart="57752.63" departLane="best" from="854052892-AddedOffRampEdge" id="veh170_57600" to="255416223#1" type="veh_passenger"/>
    <trip depart="57753.52" departLane="best" from="764267604" id="veh171_57600" to="-479621752#0" type="veh_passenger"/>
    <trip depart="57754.42" departLane="best" from="854001002#1" id="veh172_57600" to="-490165001#1" type="veh_passenger"/>
    <trip depart="57755.32" departLane="best" from="775122579#1" id="veh173_57600" to="1036114082" type="veh_passenger"/>
    <trip depart="57756.22" departLane="best" from="-475316653#0" id="veh174_57600" to="159453447#8" type="veh_passenger"/>
    <trip depart="57757.12" departLane="best" from="481854585" id="veh175_57600" to="1039159937" type="veh_passenger"/>
    <trip depart="57758.91" departLane="best" from="123423117#1" id="veh177_57600" to="320755661#1" type="veh_passenger"/>
    <trip depart="57759.81" departLane="best" from="1036338535" id="veh178_57600" to="480250299#1" type="veh_passenger"/>
    <trip depart="57760.71" departLane="best" from="-100646220#2" id="veh179_57600" to="742727470" type="veh_passenger"/>
    <trip depart="57762.5" departLane="best" from="489606090" id="veh181_57600" to="479797310#7" type="veh_passenger"/>
    <trip depart="57763.4" departLane="best" from="1042449169#1" id="veh182_57600" to="-255416229#2" type="veh_passenger"/>
    <trip depart="57765.2" departLane="best" from="1040882903" id="veh184_57600" to="623138417" type="veh_passenger"/>
    <trip depart="57766.09" departLane="best" from="480284576#1" id="veh185_57600" to="1038324580" type="veh_passenger"/>
    <trip depart="57766.99" departLane="best" from="1040591005" id="veh186_57600" to="145126347" type="veh_passenger"/>
    <trip depart="57767.89" departLane="best" from="156148404#3" id="veh187_57600" to="1036360487#5" type="veh_passenger"/>
    <trip depart="57768.79" departLane="best" from="-479621763#5" id="veh188_57600" to="156148404#2" type="veh_passenger"/>
    <trip depart="57769.69" departLane="best" from="764267605" id="veh189_57600" to="479797318#0" type="veh_passenger"/>
    <trip depart="57771.48" departLane="best" from="1039159935" id="veh191_57600" to="25931028#2" type="veh_passenger"/>
    <trip depart="57772.38" departLane="best" from="-100646217#0" id="veh192_57600" to="1036342983" type="veh_passenger"/>
    <trip depart="57773.28" departLane="best" from="159455874#8" id="veh193_57600" to="320758122#1" type="veh_passenger"/>
    <trip depart="57775.07" departLane="best" from="166563429#4" id="veh195_57600" to="100646217#3" type="veh_passenger"/>
    <trip depart="57775.97" departLane="best" from="224737854#0" id="veh196_57600" to="684135634#2" type="veh_passenger"/>
    <trip depart="57776.87" departLane="best" from="583797089#8" id="veh197_57600" to="-483726628#0" type="veh_passenger"/>
    <trip depart="57778.66" departLane="best" from="479621758#4" id="veh199_57600" to="1041187875" type="veh_passenger"/>
    <trip depart="57780.46" departLane="best" from="479797318#4" id="veh201_57600" to="1032262905#1" type="veh_passenger"/>
    <trip depart="57781.36" departLane="best" from="-623891515#1" id="veh202_57600" to="-159455892#4" type="veh_passenger"/>
    <trip depart="57783.15" departLane="best" from="623474399#3" id="veh204_57600" to="-255416251#2" type="veh_passenger"/>
    <trip depart="57784.05" departLane="best" from="159453447#12" id="veh205_57600" to="479621745#2" type="veh_passenger"/>
    <trip depart="57784.95" departLane="best" from="-622873929#0" id="veh206_57600" to="479816723#0" type="veh_passenger"/>
    <trip depart="57785.85" departLane="best" from="245763347#0" id="veh207_57600" to="1036052086#2" type="veh_passenger"/>
    <trip depart="57786.74" departLane="best" from="479797279" id="veh208_57600" to="-100646248#2" type="veh_passenger"/>
    <trip depart="57788.54" departLane="best" from="-475316645#2" id="veh210_57600" to="156148419#2" type="veh_passenger"/>
    <trip depart="57789.44" departLane="best" from="-483796488#0" id="veh211_57600" to="773876919#3" type="veh_passenger"/>
    <trip depart="57792.13" departLane="best" from="178774219#2" id="veh214_57600" to="61163710#1" type="veh_passenger"/>
    <trip depart="57793.93" departLane="best" from="323563821#2" id="veh216_57600" to="773159596#1" type="veh_passenger"/>
    <trip depart="57794.82" departLane="best" from="665453544" id="veh217_57600" to="47070283#3" type="veh_passenger"/>
    <trip depart="57795.72" departLane="best" from="480284575" id="veh218_57600" to="235424958#4" type="veh_passenger"/>
    <trip depart="57796.62" departLane="best" from="622873931#0" id="veh219_57600" to="25931028#2" type="veh_passenger"/>
    <trip depart="57797.52" departLane="best" from="665453553" id="veh220_57600" to="489629072#3" type="veh_passenger"/>
    <trip depart="57799.31" departLane="best" from="1036079534" id="veh222_57600" to="479621758#3" type="veh_passenger"/>
    <trip depart="57802.01" departLane="best" from="-255416209#0" id="veh225_57600" to="1036342983" type="veh_passenger"/>
    <trip depart="57803.8" departLane="best" from="25931909" id="veh227_57600" to="-479797345#1" type="veh_passenger"/>
    <trip depart="57806.5" departLane="best" from="156148419#4" id="veh230_57600" to="256157279" type="veh_passenger"/>
    <trip depart="57809.19" departLane="best" from="321073225#1" id="veh233_57600" to="479816717#0" type="veh_passenger"/>
    <trip depart="57810.09" departLane="best" from="625397297" id="veh234_57600" to="491628727#0" type="veh_passenger"/>
    <trip depart="57810.98" departLane="best" from="1042716324" id="veh235_57600" to="-100646252#0" type="veh_passenger"/>
    <trip depart="57811.88" departLane="best" from="1041544550#0" id="veh236_57600" to="490216931#1" type="veh_passenger"/>
    <trip depart="57812.78" departLane="best" from="623891513" id="veh237_57600" to="773159597#3" type="veh_passenger"/>
    <trip depart="57813.68" departLane="best" from="159453449#7" id="veh238_57600" to="490192688#3-AddedOnRampEdge" type="veh_passenger"/>
    <trip depart="57814.58" departLane="best" from="25931950-AddedOffRampEdge" id="veh239_57600" to="321073948" type="veh_passenger"/>
    <trip depart="57816.37" departLane="best" from="1041504064" id="veh241_57600" to="479797321" type="veh_passenger"/>
    <trip depart="57818.17" departLane="best" from="224737849#3" id="veh243_57600" to="-479797258#6" type="veh_passenger"/>
    <trip depart="57819.96" departLane="best" from="156148397#3" id="veh245_57600" to="25934381#0" type="veh_passenger"/>
    <trip depart="57820.86" departLane="best" from="-156148407#1" id="veh246_57600" to="479751358#0" type="veh_passenger"/>
    <trip depart="57821.76" departLane="best" from="-479797279" id="veh247_57600" to="166563429#5" type="veh_passenger"/>
    <trip depart="57822.66" departLane="best" from="-216060954#0" id="veh248_57600" to="1042449170" type="veh_passenger"/>
    <trip depart="57823.55" departLane="best" from="490718877#0" id="veh249_57600" to="1042449170" type="veh_passenger"/>
    <trip depart="57825.35" departLane="best" from="1036313338" id="veh251_57600" to="-25934385#0" type="veh_passenger"/>
    <trip depart="57826.25" departLane="best" from="-1039220886" id="veh252_57600" to="255416245#1" type="veh_passenger"/>
    <trip depart="57827.15" departLane="best" from="479797258#5" id="veh253_57600" to="538068339#5" type="veh_passenger"/>
    <trip depart="57828.04" departLane="best" from="479797271" id="veh254_57600" to="490216934#0" type="veh_passenger"/>
    <trip depart="57828.94" departLane="best" from="773159597#1" id="veh255_57600" to="-623891512" type="veh_passenger"/>
    <trip depart="57830.74" departLane="best" from="-479621763#11" id="veh257_57600" to="479797310#2" type="veh_passenger"/>
    <trip depart="57831.63" departLane="best" from="267535712" id="veh258_57600" to="100646248#1" type="veh_passenger"/>
    <trip depart="57832.53" departLane="best" from="480250287#2" id="veh259_57600" to="491628727#1" type="veh_passenger"/>
    <trip depart="57833.43" departLane="best" from="-480284570" id="veh260_57600" to="379986688#5" type="veh_passenger"/>
    <trip depart="57834.33" departLane="best" from="490165001#0" id="veh261_57600" to="-479621751#0" type="veh_passenger"/>
    <trip depart="57836.12" departLane="best" from="-475316652#3" id="veh263_57600" to="-159457890#2" type="veh_passenger"/>
    <trip depart="57837.02" departLane="best" from="1040882902#0" id="veh264_57600" to="479797318#0" type="veh_passenger"/>
    <trip depart="57837.92" departLane="best" from="774852739#0" id="veh265_57600" to="1042716327" type="veh_passenger"/>
    <trip depart="57839.71" departLane="best" from="479812143#3" id="veh267_57600" to="479613108#1" type="veh_passenger"/>
    <trip depart="57841.51" departLane="best" from="623891500#1" id="veh269_57600" to="321073251" type="veh_passenger"/>
    <trip depart="57842.41" departLane="best" from="491638590#0" id="veh270_57600" to="1041521601" type="veh_passenger"/>
    <trip depart="57843.31" departLane="best" from="159455874#5" id="veh271_57600" to="1042334799" type="veh_passenger"/>
    <trip depart="57844.2" departLane="best" from="248698674#2" id="veh272_57600" to="1041286369" type="veh_passenger"/>
    <trip depart="57846" departLane="best" from="-475316645#0" id="veh274_57600" to="774852739#1" type="veh_passenger"/>
    <trip depart="57846.9" departLane="best" from="479621763#6" id="veh275_57600" to="622804124#1" type="veh_passenger"/>
    <trip depart="57848.69" departLane="best" from="483726628#1" id="veh277_57600" to="775380332#4" type="veh_passenger"/>
    <trip depart="57849.59" departLane="best" from="1036341364#0" id="veh278_57600" to="61163785#3" type="veh_passenger"/>
    <trip depart="57850.49" departLane="best" from="25931907" id="veh279_57600" to="216060954#3" type="veh_passenger"/>
    <trip depart="57851.39" departLane="best" from="159455892#3" id="veh280_57600" to="481854596#2" type="veh_passenger"/>
    <trip depart="57852.28" departLane="best" from="1036341362#1" id="veh281_57600" to="623474399#2" type="veh_passenger"/>
    <trip depart="57853.18" departLane="best" from="622873931#0" id="veh282_57600" to="-320755658#2" type="veh_passenger"/>
    <trip depart="57854.08" departLane="best" from="665451328#4" id="veh283_57600" to="1036052086#2" type="veh_passenger"/>
    <trip depart="57854.98" departLane="best" from="216065940#2" id="veh284_57600" to="390383583#0" type="veh_passenger"/>
    <trip depart="57857.67" departLane="best" from="-856908280" id="veh287_57600" to="584750383#1" type="veh_passenger"/>
    <trip depart="57859.47" departLane="best" from="480250295#0" id="veh289_57600" to="1036341355" type="veh_passenger"/>
    <trip depart="57861.26" departLane="best" from="-256157283#0" id="veh291_57600" to="480284575" type="veh_passenger"/>
    <trip depart="57862.16" departLane="best" from="235427743#0" id="veh292_57600" to="491628725#0" type="veh_passenger"/>
    <trip depart="57863.06" departLane="best" from="479812143#3" id="veh293_57600" to="479751374#1" type="veh_passenger"/>
    <trip depart="57863.96" departLane="best" from="235436489#0" id="veh294_57600" to="583797089#2" type="veh_passenger"/>
    <trip depart="57864.85" departLane="best" from="-25934395#4" id="veh295_57600" to="100646269#0" type="veh_passenger"/>
    <trip depart="57865.75" departLane="best" from="479812147#0" id="veh296_57600" to="1039133060" type="veh_passenger"/>
    <trip depart="57867.55" departLane="best" from="25931028#4" id="veh298_57600" to="156148419#3" type="veh_passenger"/>
    <trip depart="57868.44" departLane="best" from="489924065" id="veh299_57600" to="1040929341" type="veh_passenger"/>
    <trip depart="57869.34" departLane="best" from="480250296#2" id="veh300_57600" to="1036341350#3" type="veh_passenger"/>
    <trip depart="57870.24" departLane="best" from="1036114082" id="veh301_57600" to="-479621763#9" type="veh_passenger"/>
    <trip depart="57871.14" departLane="best" from="-61163785#3" id="veh302_57600" to="-479621763#5" type="veh_passenger"/>
    <trip depart="57872.04" departLane="best" from="25931033" id="veh303_57600" to="491628725#3" type="veh_passenger"/>
    <trip depart="57872.93" departLane="best" from="-491638583#3" id="veh304_57600" to="100646242#1" type="veh_passenger"/>
    <trip depart="57875.63" departLane="best" from="1036360487#6" id="veh307_57600" to="-475316653#0" type="veh_passenger"/>
    <trip depart="57876.52" departLane="best" from="-622805764#1" id="veh308_57600" to="1032987570#1" type="veh_passenger"/>
    <trip depart="57879.22" departLane="best" from="854040751" id="veh311_57600" to="25931028#5" type="veh_passenger"/>
    <trip depart="57880.12" departLane="best" from="479816723#2" id="veh312_57600" to="-479797258#1" type="veh_passenger"/>
    <trip depart="57881.91" departLane="best" from="658130902" id="veh314_57600" to="26234533#2" type="veh_passenger"/>
    <trip depart="57882.81" departLane="best" from="224737850#2" id="veh315_57600" to="159453472#0" type="veh_passenger"/>
    <trip depart="57883.71" departLane="best" from="-490718877#2" id="veh316_57600" to="-248698662" type="veh_passenger"/>
    <trip depart="57885.5" departLane="best" from="618371797" id="veh318_57600" to="1046628053" type="veh_passenger"/>
    <trip depart="57886.4" departLane="best" from="-255416142#4" id="veh319_57600" to="479621745#1" type="veh_passenger"/>
    <trip depart="57888.2" departLane="best" from="267535712" id="veh321_57600" to="1039133060" type="veh_passenger"/>
    <trip depart="57889.09" departLane="best" from="994962121#3" id="veh322_57600" to="-479621763#11" type="veh_passenger"/>
    <trip depart="57889.99" departLane="best" from="491628725#1" id="veh323_57600" to="379986688#1" type="veh_passenger"/>
    <trip depart="57891.79" departLane="best" from="256157278#0" id="veh325_57600" to="159455875#2" type="veh_passenger"/>
    <trip depart="57892.69" departLane="best" from="166563429#5" id="veh326_57600" to="625413762#1" type="veh_passenger"/>
    <trip depart="57893.58" departLane="best" from="901285521" id="veh327_57600" to="1039133060" type="veh_passenger"/>
    <trip depart="57894.48" departLane="best" from="479621743#1" id="veh328_57600" to="379986768" type="veh_passenger"/>
    <trip depart="57895.38" departLane="best" from="489606084-AddedOnRampEdge" id="veh329_57600" to="765467137" type="veh_passenger"/>
    <trip depart="57896.28" departLane="best" from="-665451328#7" id="veh330_57600" to="-775599627#0" type="veh_passenger"/>
    <trip depart="57897.17" departLane="best" from="479797300#0" id="veh331_57600" to="-480282280" type="veh_passenger"/>
    <trip depart="57898.07" departLane="best" from="-480475790#0" id="veh332_57600" to="-256157278#0" type="veh_passenger"/>
    <trip depart="57898.97" departLane="best" from="-100646234" id="veh333_57600" to="159455875#2" type="veh_passenger"/>