<routes>
    <vType id="veh_passenger" vClass="passenger"/>
    <trip depart="72000" departLane="best" from="479751369#4" id="veh0_72000" to="-159455892#6" type="veh_passenger"/>
    <trip depart="72000.9" departLane="best" from="1036346145" id="veh1_72000" to="100646295#1" type="veh_passenger"/>
    <trip depart="72001.8" departLane="best" from="486825027#0" id="veh2_72000" to="479797313#7" type="veh_passenger"/>
    <trip depart="72002.69" departLane="best" from="665453544" id="veh3_72000" to="-320755659#0" type="veh_passenger"/>
    <trip depart="72004.49" departLane="best" from="100646220#1" id="veh5_72000" to="235424958#4" type="veh_passenger"/>
    <trip depart="72005.39" departLane="best" from="-155033028#1" id="veh6_72000" to="-623891502#0" type="veh_passenger"/>
    <trip depart="72006.28" departLane="best" from="479797258#4" id="veh7_72000" to="25931028#0" type="veh_passenger"/>
    <trip depart="72007.18" departLane="best" from="100646245#3" id="veh8_72000" to="321071861#2" type="veh_passenger"/>
    <trip depart="72008.98" departLane="best" from="1041521602" id="veh10_72000" to="-480276564" type="veh_passenger"/>
    <trip depart="72009.88" departLane="best" from="773876919#5" id="veh11_72000" to="1041187875-AddedOnRampEdge" type="veh_passenger"/>
    <trip depart="72011.67" departLane="best" from="623474397#3" id="veh13_72000" to="321073948" type="veh_passenger"/>
    <trip depart="72012.57" departLane="best" from="61163715#4" id="veh14_72000" to="481854591#1" type="veh_passenger"/>
    <trip depart="72013.47" departLane="best" from="25931033" id="veh15_72000" to="854001005#0" type="veh_passenger"/>
    <trip depart="72015.26" departLane="best" from="622809059#0" id="veh17_72000" to="475316653#4" type="veh_passenger"/>
    <trip depart="72016.16" departLane="best" from="625413783#2" id="veh18_72000" to="320755665" type="veh_passenger"/>
    <trip depart="72019.75" departLane="best" from="-379986746#0" id="veh22_72000" to="1036341357#0" type="veh_passenger"/>
    <trip depart="72021.55" departLane="best" from="1042693362#0" id="veh24_72000" to="-775380332#0" type="veh_passenger"/>
    <trip depart="72022.45" departLane="best" from="1036341360#1" id="veh25_72000" to="743386900" type="veh_passenger"/>
    <trip depart="72023.34" departLane="best" from="479797253#1" id="veh26_72000" to="379986751" type="veh_passenger"/>
    <trip depart="72025.14" departLane="best" from="-480252897#2" id="veh28_72000" to="1042449170" type="veh_passenger"/>
    <trip depart="72026.04" departLane="best" from="901285519#0" id="veh29_72000" to="479621763#4" type="veh_passenger"/>
    <trip depart="72027.83" departLane="best" from="623128861" id="veh31_72000" to="491638585" type="veh_passenger"/>
    <trip depart="72030.53" departLane="best" from="-775380332#5" id="veh34_72000" to="765449928" type="veh_passenger"/>
    <trip depart="72032.32" departLane="best" from="479797277#5" id="veh36_72000" to="1042716326" type="veh_passenger"/>
    <trip depart="72033.22" departLane="best" from="742718528#2" id="veh37_72000" to="166563426#4" type="veh_passenger"/>
    <trip depart="72034.12" departLane="best" from="1036341358#0" id="veh38_72000" to="1036060565" type="veh_passenger"/>
    <trip depart="72035.01" departLane="best" from="26234656#0" id="veh39_72000" to="1036099955" type="veh_passenger"/>
    <trip depart="72035.91" departLane="best" from="321073225#2" id="veh40_72000" to="684128578#0" type="veh_passenger"/>
    <trip depart="72036.81" departLane="best" from="156148402#2" id="veh41_72000" to="100646256#0" type="veh_passenger"/>
    <trip depart="72037.71" departLane="best" from="994962124#6" id="veh42_72000" to="235424974#1" type="veh_passenger"/>
    <trip depart="72039.5" departLane="best" from="-475316653#5" id="veh44_72000" to="479613108#2" type="veh_passenger"/>
    <trip depart="72040.4" departLane="best" from="583797089#1" id="veh45_72000" to="156148413#0" type="veh_passenger"/>
    <trip depart="72041.3" departLane="best" from="-248698662" id="veh46_72000" to="1042676039" type="veh_passenger"/>
    <trip depart="72042.2" departLane="best" from="994962124#3" id="veh47_72000" to="248698674#2" type="veh_passenger"/>
    <trip depart="72043.09" departLane="best" from="854001005#0" id="veh48_72000" to="625413762#3" type="veh_passenger"/>
    <trip depart="72043.99" departLane="best" from="-1036047409#0" id="veh49_72000" to="480284576#2" type="veh_passenger"/>
    <trip depart="72044.89" departLane="best" from="479797341#1-AddedOnRampEdge" id="veh50_72000" to="255416224#2" type="veh_passenger"/>
    <trip depart="72045.79" departLane="best" from="1036341360#0" id="veh51_72000" to="479621763#7" type="veh_passenger"/>
    <trip depart="72046.69" departLane="best" from="-475319370" id="veh52_72000" to="159453447#8" type="veh_passenger"/>
    <trip depart="72047.58" departLane="best" from="178774212#0" id="veh53_72000" to="773159597#3" type="veh_passenger"/>
    <trip depart="72049.38" departLane="best" from="248698668#12" id="veh55_72000" to="-490165001#1" type="veh_passenger"/>
    <trip depart="72051.17" departLane="best" from="1039159932#1" id="veh57_72000" to="479621763#11" type="veh_passenger"/>
    <trip depart="72052.97" departLane="best" from="491462355" id="veh59_72000" to="255416245#1" type="veh_passenger"/>
    <trip depart="72053.87" departLane="best" from="491638583#0" id="veh60_72000" to="255416142#2" type="veh_passenger"/>
    <trip depart="72054.77" departLane="best" from="-100646217#1" id="veh61_72000" to="1040911960" type="veh_passenger"/>
    <trip depart="72059.26" departLane="best" from="-256157283#0" id="veh66_72000" to="216065938#0" type="veh_passenger"/>
    <trip depart="72060.15" departLane="best" from="-248698668#10" id="veh67_72000" to="491628725#1-AddedOffRampEdge" type="veh_passenger"/>
    <trip depart="72061.05" departLane="best" from="491628725#1-AddedOffRampEdge" id="veh68_72000" to="-479797283#1" type="veh_passenger"/>
    <trip depart="72061.95" departLane="best" from="224737854#2" id="veh69_72000" to="25931028#3" type="veh_passenger"/>
    <trip depart="72064.64" departLane="best" from="25931909" id="veh72_72000" to="481854591#1" type="veh_passenger"/>
    <trip depart="72065.54" departLane="best" from="-625413768#3" id="veh73_72000" to="1039159932#1" type="veh_passenger"/>
    <trip depart="72066.44" departLane="best" from="994962124#2" id="veh74_72000" to="479797239#0" type="veh_passenger"/>
    <trip depart="72068.23" departLane="best" from="-479621745#7" id="veh76_72000" to="1032262905#1" type="veh_passenger"/>
    <trip depart="72069.13" departLane="best" from="1041504065" id="veh77_72000" to="321071861#1" type="veh_passenger"/>
    <trip depart="72070.03" departLane="best" from="1032665742" id="veh78_72000" to="100646260#0" type="veh_passenger"/>
    <trip depart="72070.93" departLane="best" from="-248698668#8" id="veh79_72000" to="479621745#7" type="veh_passenger"/>
    <trip depart="72072.72" departLane="best" from="625413768#2" id="veh81_72000" to="-255416245#0" type="veh_passenger"/>
    <trip depart="72074.52" departLane="best" from="-994875416" id="veh83_72000" to="-479797308" type="veh_passenger"/>
    <trip depart="72075.42" departLane="best" from="742727484#1" id="veh84_72000" to="26234533#0" type="veh_passenger"/>
    <trip depart="72076.31" departLane="best" from="224737852#6" id="veh85_72000" to="538068606-AddedOffRampEdge" type="veh_passenger"/>
    <trip depart="72077.21" departLane="best" from="-320758120" id="veh86_72000" to="156148432#0" type="veh_passenger"/>
    <trip depart="72079.01" departLane="best" from="481854588#3" id="veh88_72000" to="479797313#0" type="veh_passenger"/>
    <trip depart="72080.8" departLane="best" from="156148407#0" id="veh90_72000" to="1041235840#1-AddedOffRampEdge" type="veh_passenger"/>
    <trip depart="72081.7" departLane="best" from="625413783#2" id="veh91_72000" to="1036062887" type="veh_passenger"/>
    <trip depart="72082.6" departLane="best" from="-61163715#2" id="veh92_72000" to="159455874#9" type="veh_passenger"/>
    <trip depart="72083.5" departLane="best" from="159453472#0" id="veh93_72000" to="1036341357#1" type="veh_passenger"/>
    <trip depart="72085.29" departLane="best" from="166563429#6" id="veh95_72000" to="625413766#0" type="veh_passenger"/>
    <trip depart="72087.09" departLane="best" from="996026061#1" id="veh97_72000" to="622873931#7" type="veh_passenger"/>
    <trip depart="72087.99" departLane="best" from="854001000#1" id="veh98_72000" to="742727471" type="veh_passenger"/>
    <trip depart="72089.78" departLane="best" from="235427270" id="veh100_72000" to="100646217#3" type="veh_passenger"/>
    <trip depart="72092.47" departLane="best" from="1036341358#1" id="veh103_72000" to="538068606-AddedOffRampEdge" type="veh_passenger"/>
    <trip depart="72093.37" departLane="best" from="178774217#1" id="veh104_72000" to="156148417" type="veh_passenger"/>
    <trip depart="72095.17" departLane="best" from="25934395#5" id="veh106_72000" to="480283416#1" type="veh_passenger"/>
    <trip depart="72096.07" departLane="best" from="-480250296#0" id="veh107_72000" to="1036360487#6" type="veh_passenger"/>
    <trip depart="72096.96" departLane="best" from="854001000#0" id="veh108_72000" to="320758120" type="veh_passenger"/>
    <trip depart="72097.86" departLane="best" from="25931909" id="veh109_72000" to="490192688#5" type="veh_passenger"/>
    <trip depart="72098.76" departLane="best" from="-234517427#4" id="veh110_72000" to="320758139" type="veh_passenger"/>
    <trip depart="72099.66" departLane="best" from="248698670#0" id="veh111_72000" to="623891500#1" type="veh_passenger"/>
    <trip depart="72100.55" departLane="best" from="-480250299#0" id="veh112_72000" to="774852739#1" type="veh_passenger"/>
    <trip depart="72102.35" departLane="best" from="323563821#1" id="veh114_72000" to="479797313#4" type="veh_passenger"/>
    <trip depart="72105.04" departLane="best" from="323563821#0" id="veh117_72000" to="475316658#1" type="veh_passenger"/>
    <trip depart="72105.94" departLane="best" from="159453449#8" id="veh118_72000" to="320758139" type="veh_passenger"/>
    <trip depart="72106.84" departLane="best" from="256157278#1" id="veh119_72000" to="742727484#3" type="veh_passenger"/>
    <trip depart="72107.74" departLane="best" from="-658095569#2" id="veh120_72000" to="480276562" type="veh_passenger"/>
    <trip depart="72108.63" departLane="best" from="1036060565" id="veh121_72000" to="1042716327" type="veh_passenger"/>
    <trip depart="72109.53" departLane="best" from="479797313#7" id="veh122_72000" to="1038266651" type="veh_passenger"/>
    <trip depart="72110.43" departLane="best" from="1040925852" id="veh123_72000" to="490213894-AddedOffRampEdge" type="veh_passenger"/>
    <trip depart="72111.33" departLane="best" from="-248698670#2" id="veh124_72000" to="166563426#3" type="veh_passenger"/>
    <trip depart="72112.23" departLane="best" from="-255416142#1" id="veh125_72000" to="100646208" type="veh_passenger"/>
    <trip depart="72113.12" departLane="best" from="1036341358#1" id="veh126_72000" to="742727484#0" type="veh_passenger"/>
    <trip depart="72114.02" departLane="best" from="1042693361#1" id="veh127_72000" to="-480282281#0" type="veh_passenger"/>
    <trip depart="72114.92" departLane="best" from="622873931#7" id="veh128_72000" to="480250293#0" type="veh_passenger"/>
    <trip depart="72115.82" departLane="best" from="475316653#6" id="veh129_72000" to="854052897#4" type="veh_passenger"/>
    <trip depart="72116.71" departLane="best" from="479797277#2" id="veh130_72000" to="-100646260#1" type="veh_passenger"/>
    <trip depart="72117.61" departLane="best" from="618364867#1" id="veh131_72000" to="1038110939" type="veh_passenger"/>
    <trip depart="72118.51" departLane="best" from="479797310#0" id="veh132_72000" to="765449926#0" type="veh_passenger"/>
    <trip depart="72120.31" departLane="best" from="-475316645#2" id="veh134_72000" to="25931028#5" type="veh_passenger"/>
    <trip depart="72123" departLane="best" from="479621763#12" id="veh137_72000" to="1036099956#3" type="veh_passenger"/>
    <trip depart="72123.9" departLane="best" from="235427743#0" id="veh138_72000" to="696730624" type="veh_passenger"/>
    <trip depart="72124.8" departLane="best" from="623474397#0" id="veh139_72000" to="-379986688#2" type="veh_passenger"/>
    <trip depart="72125.69" departLane="best" from="159453472#4" id="veh140_72000" to="1036341355" type="veh_passenger"/>
    <trip depart="72126.59" departLane="best" from="-100646242#1" id="veh141_72000" to="491632371#2" type="veh_passenger"/>
    <trip depart="72127.49" departLane="best" from="479621774#2" id="veh142_72000" to="1036099953" type="veh_passenger"/>
    <trip depart="72128.39" departLane="best" from="489606090" id="veh143_72000" to="25931028#4" type="veh_passenger"/>
    <trip depart="72129.28" departLane="best" from="159455874#4" id="veh144_72000" to="-100646264#0" type="veh_passenger"/>
    <trip depart="72130.18" departLane="best" from="-255416153" id="veh145_72000" to="665451330#1" type="veh_passenger"/>
    <trip depart="72131.98" departLane="best" from="622873934#0" id="veh147_72000" to="320758130#1" type="veh_passenger"/>
    <trip depart="72132.88" departLane="best" from="-479816722#1" id="veh148_72000" to="-479797258#5" type="veh_passenger"/>
    <trip depart="72133.77" departLane="best" from="1040260533" id="veh149_72000" to="684128578#2" type="veh_passenger"/>
    <trip depart="72134.67" departLane="best" from="583797089#8" id="veh150_72000" to="625413762#3" type="veh_passenger"/>
    <trip depart="72135.57" departLane="best" from="684128578#0" id="veh151_72000" to="-775380332#4" type="veh_passenger"/>
    <trip depart="72137.36" departLane="best" from="491638583#6" id="veh153_72000" to="665451330#2" type="veh_passenger"/>
    <trip depart="72138.26" departLane="best" from="156148419#1" id="veh154_72000" to="475319371#0" type="veh_passenger"/>
    <trip depart="72140.06" departLane="best" from="625418511" id="veh156_72000" to="854040750" type="veh_passenger"/>
    <trip depart="72143.65" departLane="best" from="61163710#13" id="veh160_72000" to="625413783#2" type="veh_passenger"/>
    <trip depart="72145.44" departLane="best" from="538068340#1" id="veh162_72000" to="-479613101#1" type="veh_passenger"/>
    <trip depart="72147.24" departLane="best" from="100646256#1" id="veh164_72000" to="618371794" type="veh_passenger"/>
    <trip depart="72148.14" departLane="best" from="216060954#1" id="veh165_72000" to="1039133060" type="veh_passenger"/>
    <trip depart="72149.04" departLane="best" from="583797089#7" id="veh166_72000" to="1032987570#1" type="veh_passenger"/>
    <trip depart="72149.93" departLane="best" from="-1042698679" id="veh167_72000" to="-622804129#0" type="veh_passenger"/>
    <trip depart="72150.83" departLane="best" from="1041235840#0" id="veh168_72000" to="625413783#3" type="veh_passenger"/>
    <trip depart="72151.73" departLane="best" from="479751865#1" id="veh169_72000" to="1042728028#1" type="veh_passenger"/>
    <trip depart="72152.63" departLane="best" from="854052892-AddedOffRampEdge" id="veh170_72000" to="255416223#1" type="veh_passenger"/>
    <trip depart="72153.52" departLane="best" from="764267604" id="veh171_72000" to="-479621752#0" type="veh_passenger"/>
    <trip depart="72154.42" departLane="best" from="854001002#1" id="veh172_72000" to="-490165001#1" type="veh_passenger"/>
    <trip depart="72155.32" departLane="best" from="775122579#1" id="veh173_72000" to="1036114082" type="veh_passenger"/>
    <trip depart="72156.22" departLane="best" from="-475316653#0" id="veh174_72000" to="159453447#8" type="veh_passenger"/>
    <trip depart="72157.12" departLane="best" from="481854585" id="veh175_72000" to="1039159937" type="veh_passenger"/>
    <trip depart="72158.91" departLane="best" from="123423117#1" id="veh177_72000" to="320755661#1" type="veh_passenger"/>
    <trip depart="72159.81" departLane="best" from="1036338535" id="veh178_72000" to="480250299#1" type="veh_passenger"/>
    <trip depart="72160.71" departLane="best" from="-100646220#2" id="veh179_72000" to="742727470" type="veh_passenger"/>
    <trip depart="72162.5" departLane="best" from="489606090" id="veh181_72000" to="479797310#7" type="veh_passenger"/>
    <trip depart="72163.4" departLane="best" from="1042449169#1" id="veh182_72000" to="-255416229#2" type="veh_passenger"/>
    <trip depart="72165.2" departLane="best" from="1040882903" id="veh184_72000" to="623138417" type="veh_passenger"/>
    <trip depart="72166.09" departLane="best" from="480284576#1" id="veh185_72000" to="1038324580" type="veh_passenger"/>
    <trip depart="72166.99" departLane="best" from="1040591005" id="veh186_72000" to="145126347" type="veh_passenger"/>
    <trip depart="72167.89" departLane="best" from="156148404#3" id="veh187_72000" to="1036360487#5" type="veh_passenger"/>
    <trip depart="72168.79" departLane="best" from="-479621763#5" id="veh188_72000" to="156148404#2" type="veh_passenger"/>
    <trip depart="72169.69" departLane="best" from="764267605" id="veh189_72000" to="479797318#0" type="veh_passenger"/>
    <trip depart="72171.48" departLane="best" from="1039159935" id="veh191_72000" to="25931028#2" type="veh_passenger"/>
    <trip depart="72172.38" departLane="best" from="-100646217#0" id="veh192_72000" to="1036342983" type="veh_passenger"/>
    <trip depart="72173.28" departLane="best" from="159455874#8" id="veh193_72000" to="320758122#1" type="veh_passenger"/>
    <trip depart="72175.07" departLane="best" from="166563429#4" id="veh195_72000" to="100646217#3" type="veh_passenger"/>
    <trip depart="72175.97" departLane="best" from="224737854#0" id="veh196_72000" to="684135634#2" type="veh_passenger"/>
    <trip depart="72176.87" departLane="best" from="583797089#8" id="veh197_72000" to="-483726628#0" type="veh_passenger"/>
    <trip depart="72178.66" departLane="best" from="479621758#4" id="veh199_72000" to="1041187875" type="veh_passenger"/>
    <trip depart="72180.46" departLane="best" from="479797318#4" id="veh201_72000" to="1032262905#1" type="veh_passenger"/>
    <trip depart="72181.36" departLane="best" from="-623891515#1" id="veh202_72000" to="-159455892#4" type="veh_passenger"/>
    <trip depart="72183.15" departLane="best" from="623474399#3" id="veh204_72000" to="-255416251#2" type="veh_passenger"/>
    <trip depart="72184.05" departLane="best" from="159453447#12" id="veh205_72000" to="479621745#2" type="veh_passenger"/>
    <trip depart="72184.95" departLane="best" from="-622873929#0" id="veh206_72000" to="479816723#0" type="veh_passenger"/>
    <trip depart="72185.85" departLane="best" from="245763347#0" id="veh207_72000" to="1036052086#2" type="veh_passenger"/>
    <trip depart="72186.74" departLane="best" from="479797279" id="veh208_72000" to="-100646248#2" type="veh_passenger"/>
    <trip depart="72188.54" departLane="best" from="-475316645#2" id="veh210_72000" to="156148419#2" type="veh_passenger"/>
    <trip depart="72189.44" departLane="best" from="-483796488#0" id="veh211_72000" to="773876919#3" type="veh_passenger"/>
    <trip depart="72192.13" departLane="best" from="178774219#2" id="veh214_72000" to="61163710#1" type="veh_passenger"/>
    <trip depart="72193.93" departLane="best" from="323563821#2" id="veh216_72000" to="773159596#1" type="veh_passenger"/>
    <trip depart="72194.82" departLane="best" from="665453544" id="veh217_72000" to="47070283#3" type="veh_passenger"/>
    <trip depart="72195.72" departLane="best" from="480284575" id="veh218_72000" to="235424958#4" type="veh_passenger"/>
    <trip depart="72196.62" departLane="best" from="622873931#0" id="veh219_72000" to="25931028#2" type="veh_passenger"/>
    <trip depart="72197.52" departLane="best" from="665453553" id="veh220_72000" to="489629072#3" type="veh_passenger"/>
    <trip depart="72199.31" departLane="best" from="1036079534" id="veh222_72000" to="479621758#3" type="veh_passenger"/>
    <trip depart="72202.01" departLane="best" from="-255416209#0" id="veh225_72000" to="1036342983" type="veh_passenger"/>
    <trip depart="72203.8" departLane="best" from="25931909" id="veh227_72000" to="-479797345#1" type="veh_passenger"/>
    <trip depart="72206.5" departLane="best" from="156148419#4" id="veh230_72000" to="256157279" type="veh_passenger"/>
    <trip depart="72209.19" departLane="best" from="321073225#1" id="veh233_72000" to="479816717#0" type="veh_passenger"/>
    <trip depart="72210.09" departLane="best" from="625397297" id="veh234_72000" to="491628727#0" type="veh_passenger"/>
    <trip depart="72210.98" departLane="best" from="1042716324" id="veh235_72000" to="-100646252#0" type="veh_passenger"/>
    <trip depart="72211.88" departLane="best" from="1041544550#0" id="veh236_72000" to="490216931#1" type="veh_passenger"/>
    <trip depart="72212.78" departLane="best" from="623891513" id="veh237_72000" to="773159597#3" type="veh_passenger"/>
    <trip depart="72213.68" departLane="best" from="159453449#7" id="veh238_72000" to="490192688#3-AddedOnRampEdge" type="veh_passenger"/>
    <trip depart="72214.58" departLane="best" from="25931950-AddedOffRampEdge" id="veh239_72000" to="321073948" type="veh_passenger"/>
    <trip depart="72216.37" departLane="best" from="1041504064" id="veh241_72000" to="479797321" type="veh_passenger"/>
    <trip depart="72218.17" departLane="best" from="224737849#3" id="veh243_72000" to="-479797258#6" type="veh_passenger"/>
    <trip depart="72219.96" departLane="best" from="156148397#3" id="veh245_72000" to="25934381#0" type="veh_passenger"/>
    <trip depart="72220.86" departLane="best" from="-156148407#1" id="veh246_72000" to="479751358#0" type="veh_passenger"/>
    <trip depart="72221.76" departLane="best" from="-479797279" id="veh247_72000" to="166563429#5" type="veh_passenger"/>
    <trip depart="72222.66" departLane="best" from="-216060954#0" id="veh248_72000" to="1042449170" type="veh_passenger"/>
    <trip depart="72223.55" departLane="best" from="490718877#0" id="veh249_72000" to="1042449170" type="veh_passenger"/>
    <trip depart="72225.35" departLane="best" from="1036313338" id="veh251_72000" to="-25934385#0" type="veh_passenger"/>
    <trip depart="72226.25" departLane="best" from="-1039220886" id="veh252_72000" to="255416245#1" type="veh_passenger"/>
    <trip depart="72227.15" departLane="best" from="479797258#5" id="veh253_72000" to="538068339#5" type="veh_passenger"/>
    <trip depart="72228.04" departLane="best" from="479797271" id="veh254_72000" to="490216934#0" type="veh_passenger"/>
    <trip depart="72228.94" departLane="best" from="773159597#1" id="veh255_72000" to="-623891512" type="veh_passenger"/>
    <trip depart="72230.74" departLane="best" from="-479621763#11" id="veh257_72000" to="479797310#2" type="veh_passenger"/>
    <trip depart="72231.63" departLane="best" from="267535712" id="veh258_72000" to="100646248#1" type="veh_passenger"/>
    <trip depart="72232.53" departLane="best" from="480250287#2" id="veh259_72000" to="491628727#1" type="veh_passenger"/>
    <trip depart="72233.43" departLane="best" from="-480284570" id="veh260_72000" to="379986688#5" type="veh_passenger"/>
    <trip depart="72234.33" departLane="best" from="490165001#0" id="veh261_72000" to="-479621751#0" type="veh_passenger"/>
    <trip depart="72236.12" departLane="best" from="-475316652#3" id="veh263_72000" to="-159457890#2" type="veh_passenger"/>
    <trip depart="72237.02" departLane="best" from="1040882902#0" id="veh264_72000" to="479797318#0" type="veh_passenger"/>
    <trip depart="72237.92" departLane="best" from="774852739#0" id="veh265_72000" to="1042716327" type="veh_passenger"/>
    <trip depart="72239.71" departLane="best" from="479812143#3" id="veh267_72000" to="479613108#1" type="veh_passenger"/>
    <trip depart="72241.51" departLane="best" from="623891500#1" id="veh269_72000" to="321073251" type="veh_passenger"/>
    <trip depart="72242.41" departLane="best" from="491638590#0" id="veh270_72000" to="1041521601" type="veh_passenger"/>
    <trip depart="72243.31" departLane="best" from="159455874#5" id="veh271_72000" to="1042334799" type="veh_passenger"/>
    <trip depart="72244.2" departLane="best" from="248698674#2" id="veh272_72000" to="1041286369" type="veh_passenger"/>
    <trip depart="72246" departLane="best" from="-475316645#0" id="veh274_72000" to="774852739#1" type="veh_passenger"/>
    <trip depart="72246.9" departLane="best" from="479621763#6" id="veh275_72000" to="622804124#1" type="veh_passenger"/>
    <trip depart="72248.69" departLane="best" from="483726628#1" id="veh277_72000" to="775380332#4" type="veh_passenger"/>
    <trip depart="72249.59" departLane="best" from="1036341364#0" id="veh278_72000" to="61163785#3" type="veh_passenger"/>
    <trip depart="72250.49" departLane="best" from="25931907" id="veh279_72000" to="216060954#3" type="veh_passenger"/>
    <trip depart="72251.39" departLane="best" from="159455892#3" id="veh280_72000" to="481854596#2" type="veh_passenger"/>
    <trip depart="72252.28" departLane="best" from="1036341362#1" id="veh281_72000" to="623474399#2" type="veh_passenger"/>
    <trip depart="72253.18" departLane="best" from="622873931#0" id="veh282_72000" to="-320755658#2" type="veh_passenger"/>
    <trip depart="72254.08" departLane="best" from="665451328#4" id="veh283_72000" to="1036052086#2" type="veh_passenger"/>
    <trip depart="72254.98" departLane="best" from="216065940#2" id="veh284_72000" to="390383583#0" type="veh_passenger"/>
    <trip depart="72257.67" departLane="best" from="-856908280" id="veh287_72000" to="584750383#1" type="veh_passenger"/>
    <trip depart="72259.47" departLane="best" from="480250295#0" id="veh289_72000" to="1036341355" type="veh_passenger"/>
    <trip depart="72261.26" departLane="best" from="-256157283#0" id="veh291_72000" to="480284575" type="veh_passenger"/>
    <trip depart="72262.16" departLane="best" from="235427743#0" id="veh292_72000" to="491628725#0" type="veh_passenger"/>
    <trip depart="72263.06" departLane="best" from="479812143#3" id="veh293_72000" to="479751374#1" type="veh_passenger"/>
    <trip depart="72263.96" departLane="best" from="235436489#0" id="veh294_72000" to="583797089#2" type="veh_passenger"/>
    <trip depart="72264.85" departLane="best" from="-25934395#4" id="veh295_72000" to="100646269#0" type="veh_passenger"/>
    <trip depart="72265.75" departLane="best" from="479812147#0" id="veh296_72000" to="1039133060" type="veh_passenger"/>
    <trip depart="72267.55" departLane="best" from="25931028#4" id="veh298_72000" to="156148419#3" type="veh_passenger"/>
    <trip depart="72268.44" departLane="best" from="489924065" id="veh299_72000" to="1040929341" type="veh_passenger"/>
    <trip depart="72269.34" departLane="best" from="480250296#2" id="veh300_72000" to="1036341350#3" type="veh_passenger"/>
    <trip depart="72270.24" departLane="best" from="1036114082" id="veh301_72000" to="-479621763#9" type="veh_passenger"/>
    <trip depart="72271.14" departLane="best" from="-61163785#3" id="veh302_72000" to="-479621763#5" type="veh_passenger"/>
    <trip depart="72272.04" departLane="best" from="25931033" id="veh303_72000" to="491628725#3" type="veh_passenger"/>
    <trip depart="72272.93" departLane="best" from="-491638583#3" id="veh304_72000" to="100646242#1" type="veh_passenger"/>
    <trip depart="72275.63" departLane="best" from="1036360487#6" id="veh307_72000" to="-475316653#0" type="veh_passenger"/>
    <trip depart="72276.52" departLane="best" from="-622805764#1" id="veh308_72000" to="1032987570#1" type="veh_passenger"/>
    <trip depart="72279.22" departLane="best" from="854040751" id="veh311_72000" to="25931028#5" type="veh_passenger"/>
    <trip depart="72280.12" departLane="best" from="479816723#2" id="veh312_72000" to="-479797258#1" type="veh_passenger"/>
    <trip depart="72281.91" departLane="best" from="658130902" id="veh314_72000" to="26234533#2" type="veh_passenger"/>
    <trip depart="72282.81" departLane="best" from="224737850#2" id="veh315_72000" to="159453472#0" type="veh_passenger"/>
    <trip depart="72283.71" departLane="best" from="-490718877#2" id="veh316_72000" to="-248698662" type="veh_passenger"/>
    <trip depart="72285.5" departLane="best" from="618371797" id="veh318_72000" to="1046628053" type="veh_passenger"/>
    <trip depart="72286.4" departLane="best" from="-255416142#4" id="veh319_72000" to="479621745#1" type="veh_passenger"/>
    <trip depart="72288.2" departLane="best" from="267535712" id="veh321_72000" to="1039133060" type="veh_passenger"/>
    <trip depart="72289.09" departLane="best" from="994962121#3" id="veh322_72000" to="-479621763#11" type="veh_passenger"/>
    <trip depart="72289.99" departLane="best" from="491628725#1" id="veh323_72000" to="379986688#1" type="veh_passenger"/>
    <trip depart="72291.79" departLane="best" from="256157278#0" id="veh325_72000" to="159455875#2" type="veh_passenger"/>
    <trip depart="72292.69" departLane="best" from="166563429#5" id="veh326_72000" to="625413762#1" type="veh_passenger"/>
    <trip depart="72293.58" departLane="best" from="901285521" id="veh327_72000" to="1039133060" type="veh_passenger"/>
    <trip depart="72294.48" departLane="best" from="479621743#1" id="veh328_72000" to="379986768" type="veh_passenger"/>
    <trip depart="72295.38" departLane="best" from="489606084-AddedOnRampEdge" id="veh329_72000" to="765467137" type="veh_passenger"/>
    <trip depart="72296.28" departLane="best" from="-665451328#7" id="veh330_72000" to="-775599627#0" type="veh_passenger"/>
    <trip depart="72297.17" departLane="best" from="479797300#0" id="veh331_72000" to="-480282280" type="veh_passenger"/>
    <trip depart="72298.07" departLane="best" from="-480475790#0" id="veh332_72000" to="-256157278#0" type="veh_passenger"/>
    <trip depart="72298.97" departLane="best" from="-100646234" id="veh333_72000" to="159455875#2" type="veh_passenger"/>