<routes>
    <vType id="veh_passenger" vClass="passenger"/>
    <trip depart="75600" departLane="best" from="479751369#4" id="veh0_75600" to="-159455892#6" type="veh_passenger"/>
    <trip depart="75600.9" departLane="best" from="1036346145" id="veh1_75600" to="100646295#1" type="veh_passenger"/>
    <trip depart="75601.8" departLane="best" from="486825027#0" id="veh2_75600" to="479797313#7" type="veh_passenger"/>
    <trip depart="75602.69" departLane="best" from="665453544" id="veh3_75600" to="-320755659#0" type="veh_passenger"/>
    <trip depart="75604.49" departLane="best" from="100646220#1" id="veh5_75600" to="235424958#4" type="veh_passenger"/>
    <trip depart="75605.39" departLane="best" from="-155033028#1" id="veh6_75600" to="-623891502#0" type="veh_passenger"/>
    <trip depart="75606.28" departLane="best" from="479797258#4" id="veh7_75600" to="25931028#0" type="veh_passenger"/>
    <trip depart="75607.18" departLane="best" from="100646245#3" id="veh8_75600" to="321071861#2" type="veh_passenger"/>
    <trip depart="75608.98" departLane="best" from="1041521602" id="veh10_75600" to="-480276564" type="veh_passenger"/>
    <trip depart="75609.88" departLane="best" from="773876919#5" id="veh11_75600" to="1041187875-AddedOnRampEdge" type="veh_passenger"/>
    <trip depart="75611.67" departLane="best" from="623474397#3" id="veh13_75600" to="321073948" type="veh_passenger"/>
    <trip depart="75612.57" departLane="best" from="61163715#4" id="veh14_75600" to="481854591#1" type="veh_passenger"/>
    <trip depart="75613.47" departLane="best" from="25931033" id="veh15_75600" to="854001005#0" type="veh_passenger"/>
    <trip depart="75615.26" departLane="best" from="622809059#0" id="veh17_75600" to="475316653#4" type="veh_passenger"/>
    <trip depart="75616.16" departLane="best" from="625413783#2" id="veh18_75600" to="320755665" type="veh_passenger"/>
    <trip depart="75619.75" departLane="best" from="-379986746#0" id="veh22_75600" to="1036341357#0" type="veh_passenger"/>
    <trip depart="75621.55" departLane="best" from="1042693362#0" id="veh24_75600" to="-775380332#0" type="veh_passenger"/>
    <trip depart="75622.45" departLane="best" from="1036341360#1" id="veh25_75600" to="743386900" type="veh_passenger"/>
    <trip depart="75623.34" departLane="best" from="479797253#1" id="veh26_75600" to="379986751" type="veh_passenger"/>
    <trip depart="75625.14" departLane="best" from="-480252897#2" id="veh28_75600" to="1042449170" type="veh_passenger"/>
    <trip depart="75626.04" departLane="best" from="901285519#0" id="veh29_75600" to="479621763#4" type="veh_passenger"/>
    <trip depart="75627.83" departLane="best" from="623128861" id="veh31_75600" to="491638585" type="veh_passenger"/>
    <trip depart="75630.53" departLane="best" from="-775380332#5" id="veh34_75600" to="765449928" type="veh_passenger"/>
    <trip depart="75632.32" departLane="best" from="479797277#5" id="veh36_75600" to="1042716326" type="veh_passenger"/>
    <trip depart="75633.22" departLane="best" from="742718528#2" id="veh37_75600" to="166563426#4" type="veh_passenger"/>
    <trip depart="75634.12" departLane="best" from="1036341358#0" id="veh38_75600" to="1036060565" type="veh_passenger"/>
    <trip depart="75635.01" departLane="best" from="26234656#0" id="veh39_75600" to="1036099955" type="veh_passenger"/>
    <trip depart="75635.91" departLane="best" from="321073225#2" id="veh40_75600" to="684128578#0" type="veh_passenger"/>
    <trip depart="75636.81" departLane="best" from="156148402#2" id="veh41_75600" to="100646256#0" type="veh_passenger"/>
    <trip depart="75637.71" departLane="best" from="994962124#6" id="veh42_75600" to="235424974#1" type="veh_passenger"/>
    <trip depart="75639.5" departLane="best" from="-475316653#5" id="veh44_75600" to="479613108#2" type="veh_passenger"/>
    <trip depart="75640.4" departLane="best" from="583797089#1" id="veh45_75600" to="156148413#0" type="veh_passenger"/>
    <trip depart="75641.3" departLane="best" from="-248698662" id="veh46_75600" to="1042676039" type="veh_passenger"/>
    <trip depart="75642.2" departLane="best" from="994962124#3" id="veh47_75600" to="248698674#2" type="veh_passenger"/>
    <trip depart="75643.09" departLane="best" from="854001005#0" id="veh48_75600" to="625413762#3" type="veh_passenger"/>
    <trip depart="75643.99" departLane="best" from="-1036047409#0" id="veh49_75600" to="480284576#2" type="veh_passenger"/>
    <trip depart="75644.89" departLane="best" from="479797341#1-AddedOnRampEdge" id="veh50_75600" to="255416224#2" type="veh_passenger"/>
    <trip depart="75645.79" departLane="best" from="1036341360#0" id="veh51_75600" to="479621763#7" type="veh_passenger"/>
    <trip depart="75646.69" departLane="best" from="-475319370" id="veh52_75600" to="159453447#8" type="veh_passenger"/>
    <trip depart="75647.58" departLane="best" from="178774212#0" id="veh53_75600" to="773159597#3" type="veh_passenger"/>
    <trip depart="75649.38" departLane="best" from="248698668#12" id="veh55_75600" to="-490165001#1" type="veh_passenger"/>
    <trip depart="75651.17" departLane="best" from="1039159932#1" id="veh57_75600" to="479621763#11" type="veh_passenger"/>
    <trip depart="75652.97" departLane="best" from="491462355" id="veh59_75600" to="255416245#1" type="veh_passenger"/>
    <trip depart="75653.87" departLane="best" from="491638583#0" id="veh60_75600" to="255416142#2" type="veh_passenger"/>
    <trip depart="75654.77" departLane="best" from="-100646217#1" id="veh61_75600" to="1040911960" type="veh_passenger"/>
    <trip depart="75659.26" departLane="best" from="-256157283#0" id="veh66_75600" to="216065938#0" type="veh_passenger"/>
    <trip depart="75660.15" departLane="best" from="-248698668#10" id="veh67_75600" to="491628725#1-AddedOffRampEdge" type="veh_passenger"/>
    <trip depart="75661.05" departLane="best" from="491628725#1-AddedOffRampEdge" id="veh68_75600" to="-479797283#1" type="veh_passenger"/>
    <trip depart="75661.95" departLane="best" from="224737854#2" id="veh69_75600" to="25931028#3" type="veh_passenger"/>
    <trip depart="75664.64" departLane="best" from="25931909" id="veh72_75600" to="481854591#1" type="veh_passenger"/>
    <trip depart="75665.54" departLane="best" from="-625413768#3" id="veh73_75600" to="1039159932#1" type="veh_passenger"/>
    <trip depart="75666.44" departLane="best" from="994962124#2" id="veh74_75600" to="479797239#0" type="veh_passenger"/>
    <trip depart="75668.23" departLane="best" from="-479621745#7" id="veh76_75600" to="1032262905#1" type="veh_passenger"/>
    <trip depart="75669.13" departLane="best" from="1041504065" id="veh77_75600" to="321071861#1" type="veh_passenger"/>
    <trip depart="75670.03" departLane="best" from="1032665742" id="veh78_75600" to="100646260#0" type="veh_passenger"/>
    <trip depart="75670.93" departLane="best" from="-248698668#8" id="veh79_75600" to="479621745#7" type="veh_passenger"/>
    <trip depart="75672.72" departLane="best" from="625413768#2" id="veh81_75600" to="-255416245#0" type="veh_passenger"/>
    <trip depart="75674.52" departLane="best" from="-994875416" id="veh83_75600" to="-479797308" type="veh_passenger"/>
    <trip depart="75675.42" departLane="best" from="742727484#1" id="veh84_75600" to="26234533#0" type="veh_passenger"/>
    <trip depart="75676.31" departLane="best" from="224737852#6" id="veh85_75600" to="538068606-AddedOffRampEdge" type="veh_passenger"/>
    <trip depart="75677.21" departLane="best" from="-320758120" id="veh86_75600" to="156148432#0" type="veh_passenger"/>
    <trip depart="75679.01" departLane="best" from="481854588#3" id="veh88_75600" to="479797313#0" type="veh_passenger"/>
    <trip depart="75680.8" departLane="best" from="156148407#0" id="veh90_75600" to="1041235840#1-AddedOffRampEdge" type="veh_passenger"/>
    <trip depart="75681.7" departLane="best" from="625413783#2" id="veh91_75600" to="1036062887" type="veh_passenger"/>
    <trip depart="75682.6" departLane="best" from="-61163715#2" id="veh92_75600" to="159455874#9" type="veh_passenger"/>
    <trip depart="75683.5" departLane="best" from="159453472#0" id="veh93_75600" to="1036341357#1" type="veh_passenger"/>
    <trip depart="75685.29" departLane="best" from="166563429#6" id="veh95_75600" to="625413766#0" type="veh_passenger"/>
    <trip depart="75687.09" departLane="best" from="996026061#1" id="veh97_75600" to="622873931#7" type="veh_passenger"/>
    <trip depart="75687.99" departLane="best" from="854001000#1" id="veh98_75600" to="742727471" type="veh_passenger"/>
    <trip depart="75689.78" departLane="best" from="235427270" id="veh100_75600" to="100646217#3" type="veh_passenger"/>
    <trip depart="75692.47" departLane="best" from="1036341358#1" id="veh103_75600" to="538068606-AddedOffRampEdge" type="veh_passenger"/>
    <trip depart="75693.37" departLane="best" from="178774217#1" id="veh104_75600" to="156148417" type="veh_passenger"/>
    <trip depart="75695.17" departLane="best" from="25934395#5" id="veh106_75600" to="480283416#1" type="veh_passenger"/>
    <trip depart="75696.07" departLane="best" from="-480250296#0" id="veh107_75600" to="1036360487#6" type="veh_passenger"/>
    <trip depart="75696.96" departLane="best" from="854001000#0" id="veh108_75600" to="320758120" type="veh_passenger"/>
    <trip depart="75697.86" departLane="best" from="25931909" id="veh109_75600" to="490192688#5" type="veh_passenger"/>
    <trip depart="75698.76" departLane="best" from="-234517427#4" id="veh110_75600" to="320758139" type="veh_passenger"/>
    <trip depart="75699.66" departLane="best" from="248698670#0" id="veh111_75600" to="623891500#1" type="veh_passenger"/>
    <trip depart="75700.55" departLane="best" from="-480250299#0" id="veh112_75600" to="774852739#1" type="veh_passenger"/>
    <trip depart="75702.35" departLane="best" from="323563821#1" id="veh114_75600" to="479797313#4" type="veh_passenger"/>
    <trip depart="75705.04" departLane="best" from="323563821#0" id="veh117_75600" to="475316658#1" type="veh_passenger"/>
    <trip depart="75705.94" departLane="best" from="159453449#8" id="veh118_75600" to="320758139" type="veh_passenger"/>
    <trip depart="75706.84" departLane="best" from="256157278#1" id="veh119_75600" to="742727484#3" type="veh_passenger"/>
    <trip depart="75707.74" departLane="best" from="-658095569#2" id="veh120_75600" to="480276562" type="veh_passenger"/>
    <trip depart="75708.63" departLane="best" from="1036060565" id="veh121_75600" to="1042716327" type="veh_passenger"/>
    <trip depart="75709.53" departLane="best" from="479797313#7" id="veh122_75600" to="1038266651" type="veh_passenger"/>
    <trip depart="75710.43" departLane="best" from="1040925852" id="veh123_75600" to="490213894-AddedOffRampEdge" type="veh_passenger"/>
    <trip depart="75711.33" departLane="best" from="-248698670#2" id="veh124_75600" to="166563426#3" type="veh_passenger"/>
    <trip depart="75712.23" departLane="best" from="-255416142#1" id="veh125_75600" to="100646208" type="veh_passenger"/>
    <trip depart="75713.12" departLane="best" from="1036341358#1" id="veh126_75600" to="742727484#0" type="veh_passenger"/>
    <trip depart="75714.02" departLane="best" from="1042693361#1" id="veh127_75600" to="-480282281#0" type="veh_passenger"/>
    <trip depart="75714.92" departLane="best" from="622873931#7" id="veh128_75600" to="480250293#0" type="veh_passenger"/>
    <trip depart="75715.82" departLane="best" from="475316653#6" id="veh129_75600" to="854052897#4" type="veh_passenger"/>
    <trip depart="75716.71" departLane="best" from="479797277#2" id="veh130_75600" to="-100646260#1" type="veh_passenger"/>
    <trip depart="75717.61" departLane="best" from="618364867#1" id="veh131_75600" to="1038110939" type="veh_passenger"/>
    <trip depart="75718.51" departLane="best" from="479797310#0" id="veh132_75600" to="765449926#0" type="veh_passenger"/>
    <trip depart="75720.31" departLane="best" from="-475316645#2" id="veh134_75600" to="25931028#5" type="veh_passenger"/>
    <trip depart="75723" departLane="best" from="479621763#12" id="veh137_75600" to="1036099956#3" type="veh_passenger"/>
    <trip depart="75723.9" departLane="best" from="235427743#0" id="veh138_75600" to="696730624" type="veh_passenger"/>
    <trip depart="75724.8" departLane="best" from="623474397#0" id="veh139_75600" to="-379986688#2" type="veh_passenger"/>
    <trip depart="75725.69" departLane="best" from="159453472#4" id="veh140_75600" to="1036341355" type="veh_passenger"/>
    <trip depart="75726.59" departLane="best" from="-100646242#1" id="veh141_75600" to="491632371#2" type="veh_passenger"/>
    <trip depart="75727.49" departLane="best" from="479621774#2" id="veh142_75600" to="1036099953" type="veh_passenger"/>
    <trip depart="75728.39" departLane="best" from="489606090" id="veh143_75600" to="25931028#4" type="veh_passenger"/>
    <trip depart="75729.28" departLane="best" from="159455874#4" id="veh144_75600" to="-100646264#0" type="veh_passenger"/>
    <trip depart="75730.18" departLane="best" from="-255416153" id="veh145_75600" to="665451330#1" type="veh_passenger"/>
    <trip depart="75731.98" departLane="best" from="622873934#0" id="veh147_75600" to="320758130#1" type="veh_passenger"/>
    <trip depart="75732.88" departLane="best" from="-479816722#1" id="veh148_75600" to="-479797258#5" type="veh_passenger"/>
    <trip depart="75733.77" departLane="best" from="1040260533" id="veh149_75600" to="684128578#2" type="veh_passenger"/>
    <trip depart="75734.67" departLane="best" from="583797089#8" id="veh150_75600" to="625413762#3" type="veh_passenger"/>
    <trip depart="75735.57" departLane="best" from="684128578#0" id="veh151_75600" to="-775380332#4" type="veh_passenger"/>
    <trip depart="75737.36" departLane="best" from="491638583#6" id="veh153_75600" to="665451330#2" type="veh_passenger"/>
    <trip depart="75738.26" departLane="best" from="156148419#1" id="veh154_75600" to="475319371#0" type="veh_passenger"/>
    <trip depart="75740.06" departLane="best" from="625418511" id="veh156_75600" to="854040750" type="veh_passenger"/>
    <trip depart="75743.65" departLane="best" from="61163710#13" id="veh160_75600" to="625413783#2" type="veh_passenger"/>
    <trip depart="75745.44" departLane="best" from="538068340#1" id="veh162_75600" to="-479613101#1" type="veh_passenger"/>
    <trip depart="75747.24" departLane="best" from="100646256#1" id="veh164_75600" to="618371794" type="veh_passenger"/>
    <trip depart="75748.14" departLane="best" from="216060954#1" id="veh165_75600" to="1039133060" type="veh_passenger"/>
    <trip depart="75749.04" departLane="best" from="583797089#7" id="veh166_75600" to="1032987570#1" type="veh_passenger"/>
    <trip depart="75749.93" departLane="best" from="-1042698679" id="veh167_75600" to="-622804129#0" type="veh_passenger"/>
    <trip depart="75750.83" departLane="best" from="1041235840#0" id="veh168_75600" to="625413783#3" type="veh_passenger"/>
    <trip depart="75751.73" departLane="best" from="479751865#1" id="veh169_75600" to="1042728028#1" type="veh_passenger"/>
    <trip depart="75752.63" departLane="best" from="854052892-AddedOffRampEdge" id="veh170_75600" to="255416223#1" type="veh_passenger"/>
    <trip depart="75753.52" departLane="best" from="764267604" id="veh171_75600" to="-479621752#0" type="veh_passenger"/>
    <trip depart="75754.42" departLane="best" from="854001002#1" id="veh172_75600" to="-490165001#1" type="veh_passenger"/>
    <trip depart="75755.32" departLane="best" from="775122579#1" id="veh173_75600" to="1036114082" type="veh_passenger"/>
    <trip depart="75756.22" departLane="best" from="-475316653#0" id="veh174_75600" to="159453447#8" type="veh_passenger"/>
    <trip depart="75757.12" departLane="best" from="481854585" id="veh175_75600" to="1039159937" type="veh_passenger"/>
    <trip depart="75758.91" departLane="best" from="123423117#1" id="veh177_75600" to="320755661#1" type="veh_passenger"/>
    <trip depart="75759.81" departLane="best" from="1036338535" id="veh178_75600" to="480250299#1" type="veh_passenger"/>
    <trip depart="75760.71" departLane="best" from="-100646220#2" id="veh179_75600" to="742727470" type="veh_passenger"/>
    <trip depart="75762.5" departLane="best" from="489606090" id="veh181_75600" to="479797310#7" type="veh_passenger"/>
    <trip depart="75763.4" departLane="best" from="1042449169#1" id="veh182_75600" to="-255416229#2" type="veh_passenger"/>
    <trip depart="75765.2" departLane="best" from="1040882903" id="veh184_75600" to="623138417" type="veh_passenger"/>
    <trip depart="75766.09" departLane="best" from="480284576#1" id="veh185_75600" to="1038324580" type="veh_passenger"/>
    <trip depart="75766.99" departLane="best" from="1040591005" id="veh186_75600" to="145126347" type="veh_passenger"/>
    <trip depart="75767.89" departLane="best" from="156148404#3" id="veh187_75600" to="1036360487#5" type="veh_passenger"/>
    <trip depart="75768.79" departLane="best" from="-479621763#5" id="veh188_75600" to="156148404#2" type="veh_passenger"/>
    <trip depart="75769.69" departLane="best" from="764267605" id="veh189_75600" to="479797318#0" type="veh_passenger"/>
    <trip depart="75771.48" departLane="best" from="1039159935" id="veh191_75600" to="25931028#2" type="veh_passenger"/>
    <trip depart="75772.38" departLane="best" from="-100646217#0" id="veh192_75600" to="1036342983" type="veh_passenger"/>
    <trip depart="75773.28" departLane="best" from="159455874#8" id="veh193_75600" to="320758122#1" type="veh_passenger"/>
    <trip depart="75775.07" departLane="best" from="166563429#4" id="veh195_75600" to="100646217#3" type="veh_passenger"/>
    <trip depart="75775.97" departLane="best" from="224737854#0" id="veh196_75600" to="684135634#2" type="veh_passenger"/>
    <trip depart="75776.87" departLane="best" from="583797089#8" id="veh197_75600" to="-483726628#0" type="veh_passenger"/>
    <trip depart="75778.66" departLane="best" from="479621758#4" id="veh199_75600" to="1041187875" type="veh_passenger"/>
    <trip depart="75780.46" departLane="best" from="479797318#4" id="veh201_75600" to="1032262905#1" type="veh_passenger"/>
    <trip depart="75781.36" departLane="best" from="-623891515#1" id="veh202_75600" to="-159455892#4" type="veh_passenger"/>
    <trip depart="75783.15" departLane="best" from="623474399#3" id="veh204_75600" to="-255416251#2" type="veh_passenger"/>
    <trip depart="75784.05" departLane="best" from="159453447#12" id="veh205_75600" to="479621745#2" type="veh_passenger"/>
    <trip depart="75784.95" departLane="best" from="-622873929#0" id="veh206_75600" to="479816723#0" type="veh_passenger"/>
    <trip depart="75785.85" departLane="best" from="245763347#0" id="veh207_75600" to="1036052086#2" type="veh_passenger"/>
    <trip depart="75786.74" departLane="best" from="479797279" id="veh208_75600" to="-100646248#2" type="veh_passenger"/>
    <trip depart="75788.54" departLane="best" from="-475316645#2" id="veh210_75600" to="156148419#2" type="veh_passenger"/>
    <trip depart="75789.44" departLane="best" from="-483796488#0" id="veh211_75600" to="773876919#3" type="veh_passenger"/>
    <trip depart="75792.13" departLane="best" from="178774219#2" id="veh214_75600" to="61163710#1" type="veh_passenger"/>
    <trip depart="75793.93" departLane="best" from="323563821#2" id="veh216_75600" to="773159596#1" type="veh_passenger"/>
    <trip depart="75794.82" departLane="best" from="665453544" id="veh217_75600" to="47070283#3" type="veh_passenger"/>
    <trip depart="75795.72" departLane="best" from="480284575" id="veh218_75600" to="235424958#4" type="veh_passenger"/>
    <trip depart="75796.62" departLane="best" from="622873931#0" id="veh219_75600" to="25931028#2" type="veh_passenger"/>
    <trip depart="75797.52" departLane="best" from="665453553" id="veh220_75600" to="489629072#3" type="veh_passenger"/>
    <trip depart="75799.31" departLane="best" from="1036079534" id="veh222_75600" to="479621758#3" type="veh_passenger"/>
    <trip depart="75802.01" departLane="best" from="-255416209#0" id="veh225_75600" to="1036342983" type="veh_passenger"/>
    <trip depart="75803.8" departLane="best" from="25931909" id="veh227_75600" to="-479797345#1" type="veh_passenger"/>
    <trip depart="75806.5" departLane="best" from="156148419#4" id="veh230_75600" to="256157279" type="veh_passenger"/>
    <trip depart="75809.19" departLane="best" from="321073225#1" id="veh233_75600" to="479816717#0" type="veh_passenger"/>
    <trip depart="75810.09" departLane="best" from="625397297" id="veh234_75600" to="491628727#0" type="veh_passenger"/>
    <trip depart="75810.98" departLane="best" from="1042716324" id="veh235_75600" to="-100646252#0" type="veh_passenger"/>
    <trip depart="75811.88" departLane="best" from="1041544550#0" id="veh236_75600" to="490216931#1" type="veh_passenger"/>
    <trip depart="75812.78" departLane="best" from="623891513" id="veh237_75600" to="773159597#3" type="veh_passenger"/>
    <trip depart="75813.68" departLane="best" from="159453449#7" id="veh238_75600" to="490192688#3-AddedOnRampEdge" type="veh_passenger"/>
    <trip depart="75814.58" departLane="best" from="25931950-AddedOffRampEdge" id="veh239_75600" to="321073948" type="veh_passenger"/>
    <trip depart="75816.37" departLane="best" from="1041504064" id="veh241_75600" to="479797321" type="veh_passenger"/>
    <trip depart="75818.17" departLane="best" from="224737849#3" id="veh243_75600" to="-479797258#6" type="veh_passenger"/>
    <trip depart="75819.96" departLane="best" from="156148397#3" id="veh245_75600" to="25934381#0" type="veh_passenger"/>
    <trip depart="75820.86" departLane="best" from="-156148407#1" id="veh246_75600" to="479751358#0" type="veh_passenger"/>
    <trip depart="75821.76" departLane="best" from="-479797279" id="veh247_75600" to="166563429#5" type="veh_passenger"/>
    <trip depart="75822.66" departLane="best" from="-216060954#0" id="veh248_75600" to="1042449170" type="veh_passenger"/>
    <trip depart="75823.55" departLane="best" from="490718877#0" id="veh249_75600" to="1042449170" type="veh_passenger"/>
    <trip depart="75825.35" departLane="best" from="1036313338" id="veh251_75600" to="-25934385#0" type="veh_passenger"/>
    <trip depart="75826.25" departLane="best" from="-1039220886" id="veh252_75600" to="255416245#1" type="veh_passenger"/>
    <trip depart="75827.15" departLane="best" from="479797258#5" id="veh253_75600" to="538068339#5" type="veh_passenger"/>
    <trip depart="75828.04" departLane="best" from="479797271" id="veh254_75600" to="490216934#0" type="veh_passenger"/>
    <trip depart="75828.94" departLane="best" from="773159597#1" id="veh255_75600" to="-623891512" type="veh_passenger"/>
    <trip depart="75830.74" departLane="best" from="-479621763#11" id="veh257_75600" to="479797310#2" type="veh_passenger"/>
    <trip depart="75831.63" departLane="best" from="267535712" id="veh258_75600" to="100646248#1" type="veh_passenger"/>
    <trip depart="75832.53" departLane="best" from="480250287#2" id="veh259_75600" to="491628727#1" type="veh_passenger"/>
    <trip depart="75833.43" departLane="best" from="-480284570" id="veh260_75600" to="379986688#5" type="veh_passenger"/>
    <trip depart="75834.33" departLane="best" from="490165001#0" id="veh261_75600" to="-479621751#0" type="veh_passenger"/>
    <trip depart="75836.12" departLane="best" from="-475316652#3" id="veh263_75600" to="-159457890#2" type="veh_passenger"/>
    <trip depart="75837.02" departLane="best" from="1040882902#0" id="veh264_75600" to="479797318#0" type="veh_passenger"/>
    <trip depart="75837.92" departLane="best" from="774852739#0" id="veh265_75600" to="1042716327" type="veh_passenger"/>
    <trip depart="75839.71" departLane="best" from="479812143#3" id="veh267_75600" to="479613108#1" type="veh_passenger"/>
    <trip depart="75841.51" departLane="best" from="623891500#1" id="veh269_75600" to="321073251" type="veh_passenger"/>
    <trip depart="75842.41" departLane="best" from="491638590#0" id="veh270_75600" to="1041521601" type="veh_passenger"/>
    <trip depart="75843.31" departLane="best" from="159455874#5" id="veh271_75600" to="1042334799" type="veh_passenger"/>
    <trip depart="75844.2" departLane="best" from="248698674#2" id="veh272_75600" to="1041286369" type="veh_passenger"/>
    <trip depart="75846" departLane="best" from="-475316645#0" id="veh274_75600" to="774852739#1" type="veh_passenger"/>
    <trip depart="75846.9" departLane="best" from="479621763#6" id="veh275_75600" to="622804124#1" type="veh_passenger"/>
    <trip depart="75848.69" departLane="best" from="483726628#1" id="veh277_75600" to="775380332#4" type="veh_passenger"/>
    <trip depart="75849.59" departLane="best" from="1036341364#0" id="veh278_75600" to="61163785#3" type="veh_passenger"/>
    <trip depart="75850.49" departLane="best" from="25931907" id="veh279_75600" to="216060954#3" type="veh_passenger"/>
    <trip depart="75851.39" departLane="best" from="159455892#3" id="veh280_75600" to="481854596#2" type="veh_passenger"/>
    <trip depart="75852.28" departLane="best" from="1036341362#1" id="veh281_75600" to="623474399#2" type="veh_passenger"/>
    <trip depart="75853.18" departLane="best" from="622873931#0" id="veh282_75600" to="-320755658#2" type="veh_passenger"/>
    <trip depart="75854.08" departLane="best" from="665451328#4" id="veh283_75600" to="1036052086#2" type="veh_passenger"/>
    <trip depart="75854.98" departLane="best" from="216065940#2" id="veh284_75600" to="390383583#0" type="veh_passenger"/>
    <trip depart="75857.67" departLane="best" from="-856908280" id="veh287_75600" to="584750383#1" type="veh_passenger"/>
    <trip depart="75859.47" departLane="best" from="480250295#0" id="veh289_75600" to="1036341355" type="veh_passenger"/>
    <trip depart="75861.26" departLane="best" from="-256157283#0" id="veh291_75600" to="480284575" type="veh_passenger"/>
    <trip depart="75862.16" departLane="best" from="235427743#0" id="veh292_75600" to="491628725#0" type="veh_passenger"/>
    <trip depart="75863.06" departLane="best" from="479812143#3" id="veh293_75600" to="479751374#1" type="veh_passenger"/>
    <trip depart="75863.96" departLane="best" from="235436489#0" id="veh294_75600" to="583797089#2" type="veh_passenger"/>
    <trip depart="75864.85" departLane="best" from="-25934395#4" id="veh295_75600" to="100646269#0" type="veh_passenger"/>
    <trip depart="75865.75" departLane="best" from="479812147#0" id="veh296_75600" to="1039133060" type="veh_passenger"/>
    <trip depart="75867.55" departLane="best" from="25931028#4" id="veh298_75600" to="156148419#3" type="veh_passenger"/>
    <trip depart="75868.44" departLane="best" from="489924065" id="veh299_75600" to="1040929341" type="veh_passenger"/>
    <trip depart="75869.34" departLane="best" from="480250296#2" id="veh300_75600" to="1036341350#3" type="veh_passenger"/>
    <trip depart="75870.24" departLane="best" from="1036114082" id="veh301_75600" to="-479621763#9" type="veh_passenger"/>
    <trip depart="75871.14" departLane="best" from="-61163785#3" id="veh302_75600" to="-479621763#5" type="veh_passenger"/>
    <trip depart="75872.04" departLane="best" from="25931033" id="veh303_75600" to="491628725#3" type="veh_passenger"/>
    <trip depart="75872.93" departLane="best" from="-491638583#3" id="veh304_75600" to="100646242#1" type="veh_passenger"/>
    <trip depart="75875.63" departLane="best" from="1036360487#6" id="veh307_75600" to="-475316653#0" type="veh_passenger"/>
    <trip depart="75876.52" departLane="best" from="-622805764#1" id="veh308_75600" to="1032987570#1" type="veh_passenger"/>
    <trip depart="75879.22" departLane="best" from="854040751" id="veh311_75600" to="25931028#5" type="veh_passenger"/>
    <trip depart="75880.12" departLane="best" from="479816723#2" id="veh312_75600" to="-479797258#1" type="veh_passenger"/>
    <trip depart="75881.91" departLane="best" from="658130902" id="veh314_75600" to="26234533#2" type="veh_passenger"/>
    <trip depart="75882.81" departLane="best" from="224737850#2" id="veh315_75600" to="159453472#0" type="veh_passenger"/>
    <trip depart="75883.71" departLane="best" from="-490718877#2" id="veh316_75600" to="-248698662" type="veh_passenger"/>
    <trip depart="75885.5" departLane="best" from="618371797" id="veh318_75600" to="1046628053" type="veh_passenger"/>
    <trip depart="75886.4" departLane="best" from="-255416142#4" id="veh319_75600" to="479621745#1" type="veh_passenger"/>
    <trip depart="75888.2" departLane="best" from="267535712" id="veh321_75600" to="1039133060" type="veh_passenger"/>
    <trip depart="75889.09" departLane="best" from="994962121#3" id="veh322_75600" to="-479621763#11" type="veh_passenger"/>
    <trip depart="75889.99" departLane="best" from="491628725#1" id="veh323_75600" to="379986688#1" type="veh_passenger"/>
    <trip depart="75891.79" departLane="best" from="256157278#0" id="veh325_75600" to="159455875#2" type="veh_passenger"/>
    <trip depart="75892.69" departLane="best" from="166563429#5" id="veh326_75600" to="625413762#1" type="veh_passenger"/>
    <trip depart="75893.58" departLane="best" from="901285521" id="veh327_75600" to="1039133060" type="veh_passenger"/>
    <trip depart="75894.48" departLane="best" from="479621743#1" id="veh328_75600" to="379986768" type="veh_passenger"/>
    <trip depart="75895.38" departLane="best" from="489606084-AddedOnRampEdge" id="veh329_75600" to="765467137" type="veh_passenger"/>
    <trip depart="75896.28" departLane="best" from="-665451328#7" id="veh330_75600" to="-775599627#0" type="veh_passenger"/>
    <trip depart="75897.17" departLane="best" from="479797300#0" id="veh331_75600" to="-480282280" type="veh_passenger"/>
    <trip depart="75898.07" departLane="best" from="-480475790#0" id="veh332_75600" to="-256157278#0" type="veh_passenger"/>
    <trip depart="75898.97" departLane="best" from="-100646234" id="veh333_75600" to="159455875#2" type="veh_passenger"/>