<routes>
    <vType id="veh_passenger" vClass="passenger"/>
    <trip depart="79200" departLane="best" from="479751369#4" id="veh0_79200" to="-159455892#6" type="veh_passenger"/>
    <trip depart="79200.9" departLane="best" from="1036346145" id="veh1_79200" to="100646295#1" type="veh_passenger"/>
    <trip depart="79201.8" departLane="best" from="486825027#0" id="veh2_79200" to="479797313#7" type="veh_passenger"/>
    <trip depart="79202.69" departLane="best" from="665453544" id="veh3_79200" to="-320755659#0" type="veh_passenger"/>
    <trip depart="79204.49" departLane="best" from="100646220#1" id="veh5_79200" to="235424958#4" type="veh_passenger"/>
    <trip depart="79205.39" departLane="best" from="-155033028#1" id="veh6_79200" to="-623891502#0" type="veh_passenger"/>
    <trip depart="79206.28" departLane="best" from="479797258#4" id="veh7_79200" to="25931028#0" type="veh_passenger"/>
    <trip depart="79207.18" departLane="best" from="100646245#3" id="veh8_79200" to="321071861#2" type="veh_passenger"/>
    <trip depart="79208.98" departLane="best" from="1041521602" id="veh10_79200" to="-480276564" type="veh_passenger"/>
    <trip depart="79209.88" departLane="best" from="773876919#5" id="veh11_79200" to="1041187875-AddedOnRampEdge" type="veh_passenger"/>
    <trip depart="79211.67" departLane="best" from="623474397#3" id="veh13_79200" to="321073948" type="veh_passenger"/>
    <trip depart="79212.57" departLane="best" from="61163715#4" id="veh14_79200" to="481854591#1" type="veh_passenger"/>
    <trip depart="79213.47" departLane="best" from="25931033" id="veh15_79200" to="854001005#0" type="veh_passenger"/>
    <trip depart="79215.26" departLane="best" from="622809059#0" id="veh17_79200" to="475316653#4" type="veh_passenger"/>
    <trip depart="79216.16" departLane="best" from="625413783#2" id="veh18_79200" to="320755665" type="veh_passenger"/>
    <trip depart="79219.75" departLane="best" from="-379986746#0" id="veh22_79200" to="1036341357#0" type="veh_passenger"/>
    <trip depart="79221.55" departLane="best" from="1042693362#0" id="veh24_79200" to="-775380332#0" type="veh_passenger"/>
    <trip depart="79222.45" departLane="best" from="1036341360#1" id="veh25_79200" to="743386900" type="veh_passenger"/>
    <trip depart="79223.34" departLane="best" from="479797253#1" id="veh26_79200" to="379986751" type="veh_passenger"/>
    <trip depart="79225.14" departLane="best" from="-480252897#2" id="veh28_79200" to="1042449170" type="veh_passenger"/>
    <trip depart="79226.04" departLane="best" from="901285519#0" id="veh29_79200" to="479621763#4" type="veh_passenger"/>
    <trip depart="79227.83" departLane="best" from="623128861" id="veh31_79200" to="491638585" type="veh_passenger"/>
    <trip depart="79230.53" departLane="best" from="-775380332#5" id="veh34_79200" to="765449928" type="veh_passenger"/>
    <trip depart="79232.32" departLane="best" from="479797277#5" id="veh36_79200" to="1042716326" type="veh_passenger"/>
    <trip depart="79233.22" departLane="best" from="742718528#2" id="veh37_79200" to="166563426#4" type="veh_passenger"/>
    <trip depart="79234.12" departLane="best" from="1036341358#0" id="veh38_79200" to="1036060565" type="veh_passenger"/>
    <trip depart="79235.01" departLane="best" from="26234656#0" id="veh39_79200" to="1036099955" type="veh_passenger"/>
    <trip depart="79235.91" departLane="best" from="321073225#2" id="veh40_79200" to="684128578#0" type="veh_passenger"/>
    <trip depart="79236.81" departLane="best" from="156148402#2" id="veh41_79200" to="100646256#0" type="veh_passenger"/>
    <trip depart="79237.71" departLane="best" from="994962124#6" id="veh42_79200" to="235424974#1" type="veh_passenger"/>
    <trip depart="79239.5" departLane="best" from="-475316653#5" id="veh44_79200" to="479613108#2" type="veh_passenger"/>
    <trip depart="79240.4" departLane="best" from="583797089#1" id="veh45_79200" to="156148413#0" type="veh_passenger"/>
    <trip depart="79241.3" departLane="best" from="-248698662" id="veh46_79200" to="1042676039" type="veh_passenger"/>
    <trip depart="79242.2" departLane="best" from="994962124#3" id="veh47_79200" to="248698674#2" type="veh_passenger"/>
    <trip depart="79243.09" departLane="best" from="854001005#0" id="veh48_79200" to="625413762#3" type="veh_passenger"/>
    <trip depart="79243.99" departLane="best" from="-1036047409#0" id="veh49_79200" to="480284576#2" type="veh_passenger"/>
    <trip depart="79244.89" departLane="best" from="479797341#1-AddedOnRampEdge" id="veh50_79200" to="255416224#2" type="veh_passenger"/>
    <trip depart="79245.79" departLane="best" from="1036341360#0" id="veh51_79200" to="479621763#7" type="veh_passenger"/>
    <trip depart="79246.69" departLane="best" from="-475319370" id="veh52_79200" to="159453447#8" type="veh_passenger"/>
    <trip depart="79247.58" departLane="best" from="178774212#0" id="veh53_79200" to="773159597#3" type="veh_passenger"/>
    <trip depart="79249.38" departLane="best" from="248698668#12" id="veh55_79200" to="-490165001#1" type="veh_passenger"/>
    <trip depart="79251.17" departLane="best" from="1039159932#1" id="veh57_79200" to="479621763#11" type="veh_passenger"/>
    <trip depart="79252.97" departLane="best" from="491462355" id="veh59_79200" to="255416245#1" type="veh_passenger"/>
    <trip depart="79253.87" departLane="best" from="491638583#0" id="veh60_79200" to="255416142#2" type="veh_passenger"/>
    <trip depart="79254.77" departLane="best" from="-100646217#1" id="veh61_79200" to="1040911960" type="veh_passenger"/>
    <trip depart="79259.26" departLane="best" from="-256157283#0" id="veh66_79200" to="216065938#0" type="veh_passenger"/>
    <trip depart="79260.15" departLane="best" from="-248698668#10" id="veh67_79200" to="491628725#1-AddedOffRampEdge" type="veh_passenger"/>
    <trip depart="79261.05" departLane="best" from="491628725#1-AddedOffRampEdge" id="veh68_79200" to="-479797283#1" type="veh_passenger"/>
    <trip depart="79261.95" departLane="best" from="224737854#2" id="veh69_79200" to="25931028#3" type="veh_passenger"/>
    <trip depart="79264.64" departLane="best" from="25931909" id="veh72_79200" to="481854591#1" type="veh_passenger"/>
    <trip depart="79265.54" departLane="best" from="-625413768#3" id="veh73_79200" to="1039159932#1" type="veh_passenger"/>
    <trip depart="79266.44" departLane="best" from="994962124#2" id="veh74_79200" to="479797239#0" type="veh_passenger"/>
    <trip depart="79268.23" departLane="best" from="-479621745#7" id="veh76_79200" to="1032262905#1" type="veh_passenger"/>
    <trip depart="79269.13" departLane="best" from="1041504065" id="veh77_79200" to="321071861#1" type="veh_passenger"/>
    <trip depart="79270.03" departLane="best" from="1032665742" id="veh78_79200" to="100646260#0" type="veh_passenger"/>
    <trip depart="79270.93" departLane="best" from="-248698668#8" id="veh79_79200" to="479621745#7" type="veh_passenger"/>
    <trip depart="79272.72" departLane="best" from="625413768#2" id="veh81_79200" to="-255416245#0" type="veh_passenger"/>
    <trip depart="79274.52" departLane="best" from="-994875416" id="veh83_79200" to="-479797308" type="veh_passenger"/>
    <trip depart="79275.42" departLane="best" from="742727484#1" id="veh84_79200" to="26234533#0" type="veh_passenger"/>
    <trip depart="79276.31" departLane="best" from="224737852#6" id="veh85_79200" to="538068606-AddedOffRampEdge" type="veh_passenger"/>
    <trip depart="79277.21" departLane="best" from="-320758120" id="veh86_79200" to="156148432#0" type="veh_passenger"/>
    <trip depart="79279.01" departLane="best" from="481854588#3" id="veh88_79200" to="479797313#0" type="veh_passenger"/>
    <trip depart="79280.8" departLane="best" from="156148407#0" id="veh90_79200" to="1041235840#1-AddedOffRampEdge" type="veh_passenger"/>
    <trip depart="79281.7" departLane="best" from="625413783#2" id="veh91_79200" to="1036062887" type="veh_passenger"/>
    <trip depart="79282.6" departLane="best" from="-61163715#2" id="veh92_79200" to="159455874#9" type="veh_passenger"/>
    <trip depart="79283.5" departLane="best" from="159453472#0" id="veh93_79200" to="1036341357#1" type="veh_passenger"/>
    <trip depart="79285.29" departLane="best" from="166563429#6" id="veh95_79200" to="625413766#0" type="veh_passenger"/>
    <trip depart="79287.09" departLane="best" from="996026061#1" id="veh97_79200" to="622873931#7" type="veh_passenger"/>
    <trip depart="79287.99" departLane="best" from="854001000#1" id="veh98_79200" to="742727471" type="veh_passenger"/>
    <trip depart="79289.78" departLane="best" from="235427270" id="veh100_79200" to="100646217#3" type="veh_passenger"/>
    <trip depart="79292.47" departLane="best" from="1036341358#1" id="veh103_79200" to="538068606-AddedOffRampEdge" type="veh_passenger"/>
    <trip depart="79293.37" departLane="best" from="178774217#1" id="veh104_79200" to="156148417" type="veh_passenger"/>
    <trip depart="79295.17" departLane="best" from="25934395#5" id="veh106_79200" to="480283416#1" type="veh_passenger"/>
    <trip depart="79296.07" departLane="best" from="-480250296#0" id="veh107_79200" to="1036360487#6" type="veh_passenger"/>
    <trip depart="79296.96" departLane="best" from="854001000#0" id="veh108_79200" to="320758120" type="veh_passenger"/>
    <trip depart="79297.86" departLane="best" from="25931909" id="veh109_79200" to="490192688#5" type="veh_passenger"/>
    <trip depart="79298.76" departLane="best" from="-234517427#4" id="veh110_79200" to="320758139" type="veh_passenger"/>
    <trip depart="79299.66" departLane="best" from="248698670#0" id="veh111_79200" to="623891500#1" type="veh_passenger"/>
    <trip depart="79300.55" departLane="best" from="-480250299#0" id="veh112_79200" to="774852739#1" type="veh_passenger"/>
    <trip depart="79302.35" departLane="best" from="323563821#1" id="veh114_79200" to="479797313#4" type="veh_passenger"/>
    <trip depart="79305.04" departLane="best" from="323563821#0" id="veh117_79200" to="475316658#1" type="veh_passenger"/>
    <trip depart="79305.94" departLane="best" from="159453449#8" id="veh118_79200" to="320758139" type="veh_passenger"/>
    <trip depart="79306.84" departLane="best" from="256157278#1" id="veh119_79200" to="742727484#3" type="veh_passenger"/>
    <trip depart="79307.74" departLane="best" from="-658095569#2" id="veh120_79200" to="480276562" type="veh_passenger"/>
    <trip depart="79308.63" departLane="best" from="1036060565" id="veh121_79200" to="1042716327" type="veh_passenger"/>
    <trip depart="79309.53" departLane="best" from="479797313#7" id="veh122_79200" to="1038266651" type="veh_passenger"/>
    <trip depart="79310.43" departLane="best" from="1040925852" id="veh123_79200" to="490213894-AddedOffRampEdge" type="veh_passenger"/>
    <trip depart="79311.33" departLane="best" from="-248698670#2" id="veh124_79200" to="166563426#3" type="veh_passenger"/>
    <trip depart="79312.23" departLane="best" from="-255416142#1" id="veh125_79200" to="100646208" type="veh_passenger"/>
    <trip depart="79313.12" departLane="best" from="1036341358#1" id="veh126_79200" to="742727484#0" type="veh_passenger"/>
    <trip depart="79314.02" departLane="best" from="1042693361#1" id="veh127_79200" to="-480282281#0" type="veh_passenger"/>
    <trip depart="79314.92" departLane="best" from="622873931#7" id="veh128_79200" to="480250293#0" type="veh_passenger"/>
    <trip depart="79315.82" departLane="best" from="475316653#6" id="veh129_79200" to="854052897#4" type="veh_passenger"/>
    <trip depart="79316.71" departLane="best" from="479797277#2" id="veh130_79200" to="-100646260#1" type="veh_passenger"/>
    <trip depart="79317.61" departLane="best" from="618364867#1" id="veh131_79200" to="1038110939" type="veh_passenger"/>
    <trip depart="79318.51" departLane="best" from="479797310#0" id="veh132_79200" to="765449926#0" type="veh_passenger"/>
    <trip depart="79320.31" departLane="best" from="-475316645#2" id="veh134_79200" to="25931028#5" type="veh_passenger"/>
    <trip depart="79323" departLane="best" from="479621763#12" id="veh137_79200" to="1036099956#3" type="veh_passenger"/>
    <trip depart="79323.9" departLane="best" from="235427743#0" id="veh138_79200" to="696730624" type="veh_passenger"/>
    <trip depart="79324.8" departLane="best" from="623474397#0" id="veh139_79200" to="-379986688#2" type="veh_passenger"/>
    <trip depart="79325.69" departLane="best" from="159453472#4" id="veh140_79200" to="1036341355" type="veh_passenger"/>
    <trip depart="79326.59" departLane="best" from="-100646242#1" id="veh141_79200" to="491632371#2" type="veh_passenger"/>
    <trip depart="79327.49" departLane="best" from="479621774#2" id="veh142_79200" to="1036099953" type="veh_passenger"/>
    <trip depart="79328.39" departLane="best" from="489606090" id="veh143_79200" to="25931028#4" type="veh_passenger"/>
    <trip depart="79329.28" departLane="best" from="159455874#4" id="veh144_79200" to="-100646264#0" type="veh_passenger"/>
    <trip depart="79330.18" departLane="best" from="-255416153" id="veh145_79200" to="665451330#1" type="veh_passenger"/>
    <trip depart="79331.98" departLane="best" from="622873934#0" id="veh147_79200" to="320758130#1" type="veh_passenger"/>
    <trip depart="79332.88" departLane="best" from="-479816722#1" id="veh148_79200" to="-479797258#5" type="veh_passenger"/>
    <trip depart="79333.77" departLane="best" from="1040260533" id="veh149_79200" to="684128578#2" type="veh_passenger"/>
    <trip depart="79334.67" departLane="best" from="583797089#8" id="veh150_79200" to="625413762#3" type="veh_passenger"/>
    <trip depart="79335.57" departLane="best" from="684128578#0" id="veh151_79200" to="-775380332#4" type="veh_passenger"/>
    <trip depart="79337.36" departLane="best" from="491638583#6" id="veh153_79200" to="665451330#2" type="veh_passenger"/>
    <trip depart="79338.26" departLane="best" from="156148419#1" id="veh154_79200" to="475319371#0" type="veh_passenger"/>
    <trip depart="79340.06" departLane="best" from="625418511" id="veh156_79200" to="854040750" type="veh_passenger"/>
    <trip depart="79343.65" departLane="best" from="61163710#13" id="veh160_79200" to="625413783#2" type="veh_passenger"/>
    <trip depart="79345.44" departLane="best" from="538068340#1" id="veh162_79200" to="-479613101#1" type="veh_passenger"/>
    <trip depart="79347.24" departLane="best" from="100646256#1" id="veh164_79200" to="618371794" type="veh_passenger"/>
    <trip depart="79348.14" departLane="best" from="216060954#1" id="veh165_79200" to="1039133060" type="veh_passenger"/>
    <trip depart="79349.04" departLane="best" from="583797089#7" id="veh166_79200" to="1032987570#1" type="veh_passenger"/>
    <trip depart="79349.93" departLane="best" from="-1042698679" id="veh167_79200" to="-622804129#0" type="veh_passenger"/>
    <trip depart="79350.83" departLane="best" from="1041235840#0" id="veh168_79200" to="625413783#3" type="veh_passenger"/>
    <trip depart="79351.73" departLane="best" from="479751865#1" id="veh169_79200" to="1042728028#1" type="veh_passenger"/>
    <trip depart="79352.63" departLane="best" from="854052892-AddedOffRampEdge" id="veh170_79200" to="255416223#1" type="veh_passenger"/>
    <trip depart="79353.52" departLane="best" from="764267604" id="veh171_79200" to="-479621752#0" type="veh_passenger"/>
    <trip depart="79354.42" departLane="best" from="854001002#1" id="veh172_79200" to="-490165001#1" type="veh_passenger"/>
    <trip depart="79355.32" departLane="best" from="775122579#1" id="veh173_79200" to="1036114082" type="veh_passenger"/>
    <trip depart="79356.22" departLane="best" from="-475316653#0" id="veh174_79200" to="159453447#8" type="veh_passenger"/>
    <trip depart="79357.12" departLane="best" from="481854585" id="veh175_79200" to="1039159937" type="veh_passenger"/>
    <trip depart="79358.91" departLane="best" from="123423117#1" id="veh177_79200" to="320755661#1" type="veh_passenger"/>
    <trip depart="79359.81" departLane="best" from="1036338535" id="veh178_79200" to="480250299#1" type="veh_passenger"/>
    <trip depart="79360.71" departLane="best" from="-100646220#2" id="veh179_79200" to="742727470" type="veh_passenger"/>
    <trip depart="79362.5" departLane="best" from="489606090" id="veh181_79200" to="479797310#7" type="veh_passenger"/>
    <trip depart="79363.4" departLane="best" from="1042449169#1" id="veh182_79200" to="-255416229#2" type="veh_passenger"/>
    <trip depart="79365.2" departLane="best" from="1040882903" id="veh184_79200" to="623138417" type="veh_passenger"/>
    <trip depart="79366.09" departLane="best" from="480284576#1" id="veh185_79200" to="1038324580" type="veh_passenger"/>
    <trip depart="79366.99" departLane="best" from="1040591005" id="veh186_79200" to="145126347" type="veh_passenger"/>
    <trip depart="79367.89" departLane="best" from="156148404#3" id="veh187_79200" to="1036360487#5" type="veh_passenger"/>
    <trip depart="79368.79" departLane="best" from="-479621763#5" id="veh188_79200" to="156148404#2" type="veh_passenger"/>
    <trip depart="79369.69" departLane="best" from="764267605" id="veh189_79200" to="479797318#0" type="veh_passenger"/>
    <trip depart="79371.48" departLane="best" from="1039159935" id="veh191_79200" to="25931028#2" type="veh_passenger"/>
    <trip depart="79372.38" departLane="best" from="-100646217#0" id="veh192_79200" to="1036342983" type="veh_passenger"/>
    <trip depart="79373.28" departLane="best" from="159455874#8" id="veh193_79200" to="320758122#1" type="veh_passenger"/>
    <trip depart="79375.07" departLane="best" from="166563429#4" id="veh195_79200" to="100646217#3" type="veh_passenger"/>
    <trip depart="79375.97" departLane="best" from="224737854#0" id="veh196_79200" to="684135634#2" type="veh_passenger"/>
    <trip depart="79376.87" departLane="best" from="583797089#8" id="veh197_79200" to="-483726628#0" type="veh_passenger"/>
    <trip depart="79378.66" departLane="best" from="479621758#4" id="veh199_79200" to="1041187875" type="veh_passenger"/>
    <trip depart="79380.46" departLane="best" from="479797318#4" id="veh201_79200" to="1032262905#1" type="veh_passenger"/>
    <trip depart="79381.36" departLane="best" from="-623891515#1" id="veh202_79200" to="-159455892#4" type="veh_passenger"/>
    <trip depart="79383.15" departLane="best" from="623474399#3" id="veh204_79200" to="-255416251#2" type="veh_passenger"/>
    <trip depart="79384.05" departLane="best" from="159453447#12" id="veh205_79200" to="479621745#2" type="veh_passenger"/>
    <trip depart="79384.95" departLane="best" from="-622873929#0" id="veh206_79200" to="479816723#0" type="veh_passenger"/>
    <trip depart="79385.85" departLane="best" from="245763347#0" id="veh207_79200" to="1036052086#2" type="veh_passenger"/>
    <trip depart="79386.74" departLane="best" from="479797279" id="veh208_79200" to="-100646248#2" type="veh_passenger"/>
    <trip depart="79388.54" departLane="best" from="-475316645#2" id="veh210_79200" to="156148419#2" type="veh_passenger"/>
    <trip depart="79389.44" departLane="best" from="-483796488#0" id="veh211_79200" to="773876919#3" type="veh_passenger"/>
    <trip depart="79392.13" departLane="best" from="178774219#2" id="veh214_79200" to="61163710#1" type="veh_passenger"/>
    <trip depart="79393.93" departLane="best" from="323563821#2" id="veh216_79200" to="773159596#1" type="veh_passenger"/>
    <trip depart="79394.82" departLane="best" from="665453544" id="veh217_79200" to="47070283#3" type="veh_passenger"/>
    <trip depart="79395.72" departLane="best" from="480284575" id="veh218_79200" to="235424958#4" type="veh_passenger"/>
    <trip depart="79396.62" departLane="best" from="622873931#0" id="veh219_79200" to="25931028#2" type="veh_passenger"/>
    <trip depart="79397.52" departLane="best" from="665453553" id="veh220_79200" to="489629072#3" type="veh_passenger"/>
    <trip depart="79399.31" departLane="best" from="1036079534" id="veh222_79200" to="479621758#3" type="veh_passenger"/>
    <trip depart="79402.01" departLane="best" from="-255416209#0" id="veh225_79200" to="1036342983" type="veh_passenger"/>
    <trip depart="79403.8" departLane="best" from="25931909" id="veh227_79200" to="-479797345#1" type="veh_passenger"/>
    <trip depart="79406.5" departLane="best" from="156148419#4" id="veh230_79200" to="256157279" type="veh_passenger"/>
    <trip depart="79409.19" departLane="best" from="321073225#1" id="veh233_79200" to="479816717#0" type="veh_passenger"/>
    <trip depart="79410.09" departLane="best" from="625397297" id="veh234_79200" to="491628727#0" type="veh_passenger"/>
    <trip depart="79410.98" departLane="best" from="1042716324" id="veh235_79200" to="-100646252#0" type="veh_passenger"/>
    <trip depart="79411.88" departLane="best" from="1041544550#0" id="veh236_79200" to="490216931#1" type="veh_passenger"/>
    <trip depart="79412.78" departLane="best" from="623891513" id="veh237_79200" to="773159597#3" type="veh_passenger"/>
    <trip depart="79413.68" departLane="best" from="159453449#7" id="veh238_79200" to="490192688#3-AddedOnRampEdge" type="veh_passenger"/>
    <trip depart="79414.58" departLane="best" from="25931950-AddedOffRampEdge" id="veh239_79200" to="321073948" type="veh_passenger"/>
    <trip depart="79416.37" departLane="best" from="1041504064" id="veh241_79200" to="479797321" type="veh_passenger"/>
    <trip depart="79418.17" departLane="best" from="224737849#3" id="veh243_79200" to="-479797258#6" type="veh_passenger"/>
    <trip depart="79419.96" departLane="best" from="156148397#3" id="veh245_79200" to="25934381#0" type="veh_passenger"/>
    <trip depart="79420.86" departLane="best" from="-156148407#1" id="veh246_79200" to="479751358#0" type="veh_passenger"/>
    <trip depart="79421.76" departLane="best" from="-479797279" id="veh247_79200" to="166563429#5" type="veh_passenger"/>
    <trip depart="79422.66" departLane="best" from="-216060954#0" id="veh248_79200" to="1042449170" type="veh_passenger"/>
    <trip depart="79423.55" departLane="best" from="490718877#0" id="veh249_79200" to="1042449170" type="veh_passenger"/>
    <trip depart="79425.35" departLane="best" from="1036313338" id="veh251_79200" to="-25934385#0" type="veh_passenger"/>
    <trip depart="79426.25" departLane="best" from="-1039220886" id="veh252_79200" to="255416245#1" type="veh_passenger"/>
    <trip depart="79427.15" departLane="best" from="479797258#5" id="veh253_79200" to="538068339#5" type="veh_passenger"/>
    <trip depart="79428.04" departLane="best" from="479797271" id="veh254_79200" to="490216934#0" type="veh_passenger"/>
    <trip depart="79428.94" departLane="best" from="773159597#1" id="veh255_79200" to="-623891512" type="veh_passenger"/>
    <trip depart="79430.74" departLane="best" from="-479621763#11" id="veh257_79200" to="479797310#2" type="veh_passenger"/>
    <trip depart="79431.63" departLane="best" from="267535712" id="veh258_79200" to="100646248#1" type="veh_passenger"/>
    <trip depart="79432.53" departLane="best" from="480250287#2" id="veh259_79200" to="491628727#1" type="veh_passenger"/>
    <trip depart="79433.43" departLane="best" from="-480284570" id="veh260_79200" to="379986688#5" type="veh_passenger"/>
    <trip depart="79434.33" departLane="best" from="490165001#0" id="veh261_79200" to="-479621751#0" type="veh_passenger"/>
    <trip depart="79436.12" departLane="best" from="-475316652#3" id="veh263_79200" to="-159457890#2" type="veh_passenger"/>
    <trip depart="79437.02" departLane="best" from="1040882902#0" id="veh264_79200" to="479797318#0" type="veh_passenger"/>
    <trip depart="79437.92" departLane="best" from="774852739#0" id="veh265_79200" to="1042716327" type="veh_passenger"/>
    <trip depart="79439.71" departLane="best" from="479812143#3" id="veh267_79200" to="479613108#1" type="veh_passenger"/>
    <trip depart="79441.51" departLane="best" from="623891500#1" id="veh269_79200" to="321073251" type="veh_passenger"/>
    <trip depart="79442.41" departLane="best" from="491638590#0" id="veh270_79200" to="1041521601" type="veh_passenger"/>
    <trip depart="79443.31" departLane="best" from="159455874#5" id="veh271_79200" to="1042334799" type="veh_passenger"/>
    <trip depart="79444.2" departLane="best" from="248698674#2" id="veh272_79200" to="1041286369" type="veh_passenger"/>
    <trip depart="79446" departLane="best" from="-475316645#0" id="veh274_79200" to="774852739#1" type="veh_passenger"/>
    <trip depart="79446.9" departLane="best" from="479621763#6" id="veh275_79200" to="622804124#1" type="veh_passenger"/>
    <trip depart="79448.69" departLane="best" from="483726628#1" id="veh277_79200" to="775380332#4" type="veh_passenger"/>
    <trip depart="79449.59" departLane="best" from="1036341364#0" id="veh278_79200" to="61163785#3" type="veh_passenger"/>
    <trip depart="79450.49" departLane="best" from="25931907" id="veh279_79200" to="216060954#3" type="veh_passenger"/>
    <trip depart="79451.39" departLane="best" from="159455892#3" id="veh280_79200" to="481854596#2" type="veh_passenger"/>
    <trip depart="79452.28" departLane="best" from="1036341362#1" id="veh281_79200" to="623474399#2" type="veh_passenger"/>
    <trip depart="79453.18" departLane="best" from="622873931#0" id="veh282_79200" to="-320755658#2" type="veh_passenger"/>
    <trip depart="79454.08" departLane="best" from="665451328#4" id="veh283_79200" to="1036052086#2" type="veh_passenger"/>
    <trip depart="79454.98" departLane="best" from="216065940#2" id="veh284_79200" to="390383583#0" type="veh_passenger"/>
    <trip depart="79457.67" departLane="best" from="-856908280" id="veh287_79200" to="584750383#1" type="veh_passenger"/>
    <trip depart="79459.47" departLane="best" from="480250295#0" id="veh289_79200" to="1036341355" type="veh_passenger"/>
    <trip depart="79461.26" departLane="best" from="-256157283#0" id="veh291_79200" to="480284575" type="veh_passenger"/>
    <trip depart="79462.16" departLane="best" from="235427743#0" id="veh292_79200" to="491628725#0" type="veh_passenger"/>
    <trip depart="79463.06" departLane="best" from="479812143#3" id="veh293_79200" to="479751374#1" type="veh_passenger"/>
    <trip depart="79463.96" departLane="best" from="235436489#0" id="veh294_79200" to="583797089#2" type="veh_passenger"/>
    <trip depart="79464.85" departLane="best" from="-25934395#4" id="veh295_79200" to="100646269#0" type="veh_passenger"/>
    <trip depart="79465.75" departLane="best" from="479812147#0" id="veh296_79200" to="1039133060" type="veh_passenger"/>
    <trip depart="79467.55" departLane="best" from="25931028#4" id="veh298_79200" to="156148419#3" type="veh_passenger"/>
    <trip depart="79468.44" departLane="best" from="489924065" id="veh299_79200" to="1040929341" type="veh_passenger"/>
    <trip depart="79469.34" departLane="best" from="480250296#2" id="veh300_79200" to="1036341350#3" type="veh_passenger"/>
    <trip depart="79470.24" departLane="best" from="1036114082" id="veh301_79200" to="-479621763#9" type="veh_passenger"/>
    <trip depart="79471.14" departLane="best" from="-61163785#3" id="veh302_79200" to="-479621763#5" type="veh_passenger"/>
    <trip depart="79472.04" departLane="best" from="25931033" id="veh303_79200" to="491628725#3" type="veh_passenger"/>
    <trip depart="79472.93" departLane="best" from="-491638583#3" id="veh304_79200" to="100646242#1" type="veh_passenger"/>
    <trip depart="79475.63" departLane="best" from="1036360487#6" id="veh307_79200" to="-475316653#0" type="veh_passenger"/>
    <trip depart="79476.52" departLane="best" from="-622805764#1" id="veh308_79200" to="1032987570#1" type="veh_passenger"/>
    <trip depart="79479.22" departLane="best" from="854040751" id="veh311_79200" to="25931028#5" type="veh_passenger"/>
    <trip depart="79480.12" departLane="best" from="479816723#2" id="veh312_79200" to="-479797258#1" type="veh_passenger"/>
    <trip depart="79481.91" departLane="best" from="658130902" id="veh314_79200" to="26234533#2" type="veh_passenger"/>
    <trip depart="79482.81" departLane="best" from="224737850#2" id="veh315_79200" to="159453472#0" type="veh_passenger"/>
    <trip depart="79483.71" departLane="best" from="-490718877#2" id="veh316_79200" to="-248698662" type="veh_passenger"/>
    <trip depart="79485.5" departLane="best" from="618371797" id="veh318_79200" to="1046628053" type="veh_passenger"/>
    <trip depart="79486.4" departLane="best" from="-255416142#4" id="veh319_79200" to="479621745#1" type="veh_passenger"/>
    <trip depart="79488.2" departLane="best" from="267535712" id="veh321_79200" to="1039133060" type="veh_passenger"/>
    <trip depart="79489.09" departLane="best" from="994962121#3" id="veh322_79200" to="-479621763#11" type="veh_passenger"/>
    <trip depart="79489.99" departLane="best" from="491628725#1" id="veh323_79200" to="379986688#1" type="veh_passenger"/>
    <trip depart="79491.79" departLane="best" from="256157278#0" id="veh325_79200" to="159455875#2" type="veh_passenger"/>
    <trip depart="79492.69" departLane="best" from="166563429#5" id="veh326_79200" to="625413762#1" type="veh_passenger"/>
    <trip depart="79493.58" departLane="best" from="901285521" id="veh327_79200" to="1039133060" type="veh_passenger"/>
    <trip depart="79494.48" departLane="best" from="479621743#1" id="veh328_79200" to="379986768" type="veh_passenger"/>
    <trip depart="79495.38" departLane="best" from="489606084-AddedOnRampEdge" id="veh329_79200" to="765467137" type="veh_passenger"/>
    <trip depart="79496.28" departLane="best" from="-665451328#7" id="veh330_79200" to="-775599627#0" type="veh_passenger"/>
    <trip depart="79497.17" departLane="best" from="479797300#0" id="veh331_79200" to="-480282280" type="veh_passenger"/>
    <trip depart="79498.07" departLane="best" from="-480475790#0" id="veh332_79200" to="-256157278#0" type="veh_passenger"/>
    <trip depart="79498.97" departLane="best" from="-100646234" id="veh333_79200" to="159455875#2" type="veh_passenger"/>