<routes>
    <vType id="veh_passenger" vClass="passenger"/>
    <trip depart="82800" departLane="best" from="479751369#4" id="veh0_82800" to="-159455892#6" type="veh_passenger"/>
    <trip depart="82800.9" departLane="best" from="1036346145" id="veh1_82800" to="100646295#1" type="veh_passenger"/>
    <trip depart="82801.8" departLane="best" from="486825027#0" id="veh2_82800" to="479797313#7" type="veh_passenger"/>
    <trip depart="82802.69" departLane="best" from="665453544" id="veh3_82800" to="-320755659#0" type="veh_passenger"/>
    <trip depart="82804.49" departLane="best" from="100646220#1" id="veh5_82800" to="235424958#4" type="veh_passenger"/>
    <trip depart="82805.39" departLane="best" from="-155033028#1" id="veh6_82800" to="-623891502#0" type="veh_passenger"/>
    <trip depart="82806.28" departLane="best" from="479797258#4" id="veh7_82800" to="25931028#0" type="veh_passenger"/>
    <trip depart="82807.18" departLane="best" from="100646245#3" id="veh8_82800" to="321071861#2" type="veh_passenger"/>
    <trip depart="82808.98" departLane="best" from="1041521602" id="veh10_82800" to="-480276564" type="veh_passenger"/>
    <trip depart="82809.88" departLane="best" from="773876919#5" id="veh11_82800" to="1041187875-AddedOnRampEdge" type="veh_passenger"/>
    <trip depart="82811.67" departLane="best" from="623474397#3" id="veh13_82800" to="321073948" type="veh_passenger"/>
    <trip depart="82812.57" departLane="best" from="61163715#4" id="veh14_82800" to="481854591#1" type="veh_passenger"/>
    <trip depart="82813.47" departLane="best" from="25931033" id="veh15_82800" to="854001005#0" type="veh_passenger"/>
    <trip depart="82815.26" departLane="best" from="622809059#0" id="veh17_82800" to="475316653#4" type="veh_passenger"/>
    <trip depart="82816.16" departLane="best" from="625413783#2" id="veh18_82800" to="320755665" type="veh_passenger"/>
    <trip depart="82819.75" departLane="best" from="-379986746#0" id="veh22_82800" to="1036341357#0" type="veh_passenger"/>
    <trip depart="82821.55" departLane="best" from="1042693362#0" id="veh24_82800" to="-775380332#0" type="veh_passenger"/>
    <trip depart="82822.45" departLane="best" from="1036341360#1" id="veh25_82800" to="743386900" type="veh_passenger"/>
    <trip depart="82823.34" departLane="best" from="479797253#1" id="veh26_82800" to="379986751" type="veh_passenger"/>
    <trip depart="82825.14" departLane="best" from="-480252897#2" id="veh28_82800" to="1042449170" type="veh_passenger"/>
    <trip depart="82826.04" departLane="best" from="901285519#0" id="veh29_82800" to="479621763#4" type="veh_passenger"/>
    <trip depart="82827.83" departLane="best" from="623128861" id="veh31_82800" to="491638585" type="veh_passenger"/>
    <trip depart="82830.53" departLane="best" from="-775380332#5" id="veh34_82800" to="765449928" type="veh_passenger"/>
    <trip depart="82832.32" departLane="best" from="479797277#5" id="veh36_82800" to="1042716326" type="veh_passenger"/>
    <trip depart="82833.22" departLane="best" from="742718528#2" id="veh37_82800" to="166563426#4" type="veh_passenger"/>
    <trip depart="82834.12" departLane="best" from="1036341358#0" id="veh38_82800" to="1036060565" type="veh_passenger"/>
    <trip depart="82835.01" departLane="best" from="26234656#0" id="veh39_82800" to="1036099955" type="veh_passenger"/>
    <trip depart="82835.91" departLane="best" from="321073225#2" id="veh40_82800" to="684128578#0" type="veh_passenger"/>
    <trip depart="82836.81" departLane="best" from="156148402#2" id="veh41_82800" to="100646256#0" type="veh_passenger"/>
    <trip depart="82837.71" departLane="best" from="994962124#6" id="veh42_82800" to="235424974#1" type="veh_passenger"/>
    <trip depart="82839.5" departLane="best" from="-475316653#5" id="veh44_82800" to="479613108#2" type="veh_passenger"/>
    <trip depart="82840.4" departLane="best" from="583797089#1" id="veh45_82800" to="156148413#0" type="veh_passenger"/>
    <trip depart="82841.3" departLane="best" from="-248698662" id="veh46_82800" to="1042676039" type="veh_passenger"/>
    <trip depart="82842.2" departLane="best" from="994962124#3" id="veh47_82800" to="248698674#2" type="veh_passenger"/>
    <trip depart="82843.09" departLane="best" from="854001005#0" id="veh48_82800" to="625413762#3" type="veh_passenger"/>
    <trip depart="82843.99" departLane="best" from="-1036047409#0" id="veh49_82800" to="480284576#2" type="veh_passenger"/>
    <trip depart="82844.89" departLane="best" from="479797341#1-AddedOnRampEdge" id="veh50_82800" to="255416224#2" type="veh_passenger"/>
    <trip depart="82845.79" departLane="best" from="1036341360#0" id="veh51_82800" to="479621763#7" type="veh_passenger"/>
    <trip depart="82846.69" departLane="best" from="-475319370" id="veh52_82800" to="159453447#8" type="veh_passenger"/>
    <trip depart="82847.58" departLane="best" from="178774212#0" id="veh53_82800" to="773159597#3" type="veh_passenger"/>
    <trip depart="82849.38" departLane="best" from="248698668#12" id="veh55_82800" to="-490165001#1" type="veh_passenger"/>
    <trip depart="82851.17" departLane="best" from="1039159932#1" id="veh57_82800" to="479621763#11" type="veh_passenger"/>
    <trip depart="82852.97" departLane="best" from="491462355" id="veh59_82800" to="255416245#1" type="veh_passenger"/>
    <trip depart="82853.87" departLane="best" from="491638583#0" id="veh60_82800" to="255416142#2" type="veh_passenger"/>
    <trip depart="82854.77" departLane="best" from="-100646217#1" id="veh61_82800" to="1040911960" type="veh_passenger"/>
    <trip depart="82859.26" departLane="best" from="-256157283#0" id="veh66_82800" to="216065938#0" type="veh_passenger"/>
    <trip depart="82860.15" departLane="best" from="-248698668#10" id="veh67_82800" to="491628725#1-AddedOffRampEdge" type="veh_passenger"/>
    <trip depart="82861.05" departLane="best" from="491628725#1-AddedOffRampEdge" id="veh68_82800" to="-479797283#1" type="veh_passenger"/>
    <trip depart="82861.95" departLane="best" from="224737854#2" id="veh69_82800" to="25931028#3" type="veh_passenger"/>
    <trip depart="82864.64" departLane="best" from="25931909" id="veh72_82800" to="481854591#1" type="veh_passenger"/>
    <trip depart="82865.54" departLane="best" from="-625413768#3" id="veh73_82800" to="1039159932#1" type="veh_passenger"/>
    <trip depart="82866.44" departLane="best" from="994962124#2" id="veh74_82800" to="479797239#0" type="veh_passenger"/>
    <trip depart="82868.23" departLane="best" from="-479621745#7" id="veh76_82800" to="1032262905#1" type="veh_passenger"/>
    <trip depart="82869.13" departLane="best" from="1041504065" id="veh77_82800" to="321071861#1" type="veh_passenger"/>
    <trip depart="82870.03" departLane="best" from="1032665742" id="veh78_82800" to="100646260#0" type="veh_passenger"/>
    <trip depart="82870.93" departLane="best" from="-248698668#8" id="veh79_82800" to="479621745#7" type="veh_passenger"/>
    <trip depart="82872.72" departLane="best" from="625413768#2" id="veh81_82800" to="-255416245#0" type="veh_passenger"/>
    <trip depart="82874.52" departLane="best" from="-994875416" id="veh83_82800" to="-479797308" type="veh_passenger"/>
    <trip depart="82875.42" departLane="best" from="742727484#1" id="veh84_82800" to="26234533#0" type="veh_passenger"/>
    <trip depart="82876.31" departLane="best" from="224737852#6" id="veh85_82800" to="538068606-AddedOffRampEdge" type="veh_passenger"/>
    <trip depart="82877.21" departLane="best" from="-320758120" id="veh86_82800" to="156148432#0" type="veh_passenger"/>
    <trip depart="82879.01" departLane="best" from="481854588#3" id="veh88_82800" to="479797313#0" type="veh_passenger"/>
    <trip depart="82880.8" departLane="best" from="156148407#0" id="veh90_82800" to="1041235840#1-AddedOffRampEdge" type="veh_passenger"/>
    <trip depart="82881.7" departLane="best" from="625413783#2" id="veh91_82800" to="1036062887" type="veh_passenger"/>
    <trip depart="82882.6" departLane="best" from="-61163715#2" id="veh92_82800" to="159455874#9" type="veh_passenger"/>
    <trip depart="82883.5" departLane="best" from="159453472#0" id="veh93_82800" to="1036341357#1" type="veh_passenger"/>
    <trip depart="82885.29" departLane="best" from="166563429#6" id="veh95_82800" to="625413766#0" type="veh_passenger"/>
    <trip depart="82887.09" departLane="best" from="996026061#1" id="veh97_82800" to="622873931#7" type="veh_passenger"/>
    <trip depart="82887.99" departLane="best" from="854001000#1" id="veh98_82800" to="742727471" type="veh_passenger"/>
    <trip depart="82889.78" departLane="best" from="235427270" id="veh100_82800" to="100646217#3" type="veh_passenger"/>
    <trip depart="82892.47" departLane="best" from="1036341358#1" id="veh103_82800" to="538068606-AddedOffRampEdge" type="veh_passenger"/>
    <trip depart="82893.37" departLane="best" from="178774217#1" id="veh104_82800" to="156148417" type="veh_passenger"/>
    <trip depart="82895.17" departLane="best" from="25934395#5" id="veh106_82800" to="480283416#1" type="veh_passenger"/>
    <trip depart="82896.07" departLane="best" from="-480250296#0" id="veh107_82800" to="1036360487#6" type="veh_passenger"/>
    <trip depart="82896.96" departLane="best" from="854001000#0" id="veh108_82800" to="320758120" type="veh_passenger"/>
    <trip depart="82897.86" departLane="best" from="25931909" id="veh109_82800" to="490192688#5" type="veh_passenger"/>
    <trip depart="82898.76" departLane="best" from="-234517427#4" id="veh110_82800" to="320758139" type="veh_passenger"/>
    <trip depart="82899.66" departLane="best" from="248698670#0" id="veh111_82800" to="623891500#1" type="veh_passenger"/>
    <trip depart="82900.55" departLane="best" from="-480250299#0" id="veh112_82800" to="774852739#1" type="veh_passenger"/>
    <trip depart="82902.35" departLane="best" from="323563821#1" id="veh114_82800" to="479797313#4" type="veh_passenger"/>
    <trip depart="82905.04" departLane="best" from="323563821#0" id="veh117_82800" to="475316658#1" type="veh_passenger"/>
    <trip depart="82905.94" departLane="best" from="159453449#8" id="veh118_82800" to="320758139" type="veh_passenger"/>
    <trip depart="82906.84" departLane="best" from="256157278#1" id="veh119_82800" to="742727484#3" type="veh_passenger"/>
    <trip depart="82907.74" departLane="best" from="-658095569#2" id="veh120_82800" to="480276562" type="veh_passenger"/>
    <trip depart="82908.63" departLane="best" from="1036060565" id="veh121_82800" to="1042716327" type="veh_passenger"/>
    <trip depart="82909.53" departLane="best" from="479797313#7" id="veh122_82800" to="1038266651" type="veh_passenger"/>
    <trip depart="82910.43" departLane="best" from="1040925852" id="veh123_82800" to="490213894-AddedOffRampEdge" type="veh_passenger"/>
    <trip depart="82911.33" departLane="best" from="-248698670#2" id="veh124_82800" to="166563426#3" type="veh_passenger"/>
    <trip depart="82912.23" departLane="best" from="-255416142#1" id="veh125_82800" to="100646208" type="veh_passenger"/>
    <trip depart="82913.12" departLane="best" from="1036341358#1" id="veh126_82800" to="742727484#0" type="veh_passenger"/>
    <trip depart="82914.02" departLane="best" from="1042693361#1" id="veh127_82800" to="-480282281#0" type="veh_passenger"/>
    <trip depart="82914.92" departLane="best" from="622873931#7" id="veh128_82800" to="480250293#0" type="veh_passenger"/>
    <trip depart="82915.82" departLane="best" from="475316653#6" id="veh129_82800" to="854052897#4" type="veh_passenger"/>
    <trip depart="82916.71" departLane="best" from="479797277#2" id="veh130_82800" to="-100646260#1" type="veh_passenger"/>
    <trip depart="82917.61" departLane="best" from="618364867#1" id="veh131_82800" to="1038110939" type="veh_passenger"/>
    <trip depart="82918.51" departLane="best" from="479797310#0" id="veh132_82800" to="765449926#0" type="veh_passenger"/>
    <trip depart="82920.31" departLane="best" from="-475316645#2" id="veh134_82800" to="25931028#5" type="veh_passenger"/>
    <trip depart="82923" departLane="best" from="479621763#12" id="veh137_82800" to="1036099956#3" type="veh_passenger"/>
    <trip depart="82923.9" departLane="best" from="235427743#0" id="veh138_82800" to="696730624" type="veh_passenger"/>
    <trip depart="82924.8" departLane="best" from="623474397#0" id="veh139_82800" to="-379986688#2" type="veh_passenger"/>
    <trip depart="82925.69" departLane="best" from="159453472#4" id="veh140_82800" to="1036341355" type="veh_passenger"/>
    <trip depart="82926.59" departLane="best" from="-100646242#1" id="veh141_82800" to="491632371#2" type="veh_passenger"/>
    <trip depart="82927.49" departLane="best" from="479621774#2" id="veh142_82800" to="1036099953" type="veh_passenger"/>
    <trip depart="82928.39" departLane="best" from="489606090" id="veh143_82800" to="25931028#4" type="veh_passenger"/>
    <trip depart="82929.28" departLane="best" from="159455874#4" id="veh144_82800" to="-100646264#0" type="veh_passenger"/>
    <trip depart="82930.18" departLane="best" from="-255416153" id="veh145_82800" to="665451330#1" type="veh_passenger"/>
    <trip depart="82931.98" departLane="best" from="622873934#0" id="veh147_82800" to="320758130#1" type="veh_passenger"/>
    <trip depart="82932.88" departLane="best" from="-479816722#1" id="veh148_82800" to="-479797258#5" type="veh_passenger"/>
    <trip depart="82933.77" departLane="best" from="1040260533" id="veh149_82800" to="684128578#2" type="veh_passenger"/>
    <trip depart="82934.67" departLane="best" from="583797089#8" id="veh150_82800" to="625413762#3" type="veh_passenger"/>
    <trip depart="82935.57" departLane="best" from="684128578#0" id="veh151_82800" to="-775380332#4" type="veh_passenger"/>
    <trip depart="82937.36" departLane="best" from="491638583#6" id="veh153_82800" to="665451330#2" type="veh_passenger"/>
    <trip depart="82938.26" departLane="best" from="156148419#1" id="veh154_82800" to="475319371#0" type="veh_passenger"/>
    <trip depart="82940.06" departLane="best" from="625418511" id="veh156_82800" to="854040750" type="veh_passenger"/>
    <trip depart="82943.65" departLane="best" from="61163710#13" id="veh160_82800" to="625413783#2" type="veh_passenger"/>
    <trip depart="82945.44" departLane="best" from="538068340#1" id="veh162_82800" to="-479613101#1" type="veh_passenger"/>
    <trip depart="82947.24" departLane="best" from="100646256#1" id="veh164_82800" to="618371794" type="veh_passenger"/>
    <trip depart="82948.14" departLane="best" from="216060954#1" id="veh165_82800" to="1039133060" type="veh_passenger"/>
    <trip depart="82949.04" departLane="best" from="583797089#7" id="veh166_82800" to="1032987570#1" type="veh_passenger"/>
    <trip depart="82949.93" departLane="best" from="-1042698679" id="veh167_82800" to="-622804129#0" type="veh_passenger"/>
    <trip depart="82950.83" departLane="best" from="1041235840#0" id="veh168_82800" to="625413783#3" type="veh_passenger"/>
    <trip depart="82951.73" departLane="best" from="479751865#1" id="veh169_82800" to="1042728028#1" type="veh_passenger"/>
    <trip depart="82952.63" departLane="best" from="854052892-AddedOffRampEdge" id="veh170_82800" to="255416223#1" type="veh_passenger"/>
    <trip depart="82953.52" departLane="best" from="764267604" id="veh171_82800" to="-479621752#0" type="veh_passenger"/>
    <trip depart="82954.42" departLane="best" from="854001002#1" id="veh172_82800" to="-490165001#1" type="veh_passenger"/>
    <trip depart="82955.32" departLane="best" from="775122579#1" id="veh173_82800" to="1036114082" type="veh_passenger"/>
    <trip depart="82956.22" departLane="best" from="-475316653#0" id="veh174_82800" to="159453447#8" type="veh_passenger"/>
    <trip depart="82957.12" departLane="best" from="481854585" id="veh175_82800" to="1039159937" type="veh_passenger"/>
    <trip depart="82958.91" departLane="best" from="123423117#1" id="veh177_82800" to="320755661#1" type="veh_passenger"/>
    <trip depart="82959.81" departLane="best" from="1036338535" id="veh178_82800" to="480250299#1" type="veh_passenger"/>
    <trip depart="82960.71" departLane="best" from="-100646220#2" id="veh179_82800" to="742727470" type="veh_passenger"/>
    <trip depart="82962.5" departLane="best" from="489606090" id="veh181_82800" to="479797310#7" type="veh_passenger"/>
    <trip depart="82963.4" departLane="best" from="1042449169#1" id="veh182_82800" to="-255416229#2" type="veh_passenger"/>
    <trip depart="82965.2" departLane="best" from="1040882903" id="veh184_82800" to="623138417" type="veh_passenger"/>
    <trip depart="82966.09" departLane="best" from="480284576#1" id="veh185_82800" to="1038324580" type="veh_passenger"/>
    <trip depart="82966.99" departLane="best" from="1040591005" id="veh186_82800" to="145126347" type="veh_passenger"/>
    <trip depart="82967.89" departLane="best" from="156148404#3" id="veh187_82800" to="1036360487#5" type="veh_passenger"/>
    <trip depart="82968.79" departLane="best" from="-479621763#5" id="veh188_82800" to="156148404#2" type="veh_passenger"/>
    <trip depart="82969.69" departLane="best" from="764267605" id="veh189_82800" to="479797318#0" type="veh_passenger"/>
    <trip depart="82971.48" departLane="best" from="1039159935" id="veh191_82800" to="25931028#2" type="veh_passenger"/>
    <trip depart="82972.38" departLane="best" from="-100646217#0" id="veh192_82800" to="1036342983" type="veh_passenger"/>
    <trip depart="82973.28" departLane="best" from="159455874#8" id="veh193_82800" to="320758122#1" type="veh_passenger"/>
    <trip depart="82975.07" departLane="best" from="166563429#4" id="veh195_82800" to="100646217#3" type="veh_passenger"/>
    <trip depart="82975.97" departLane="best" from="224737854#0" id="veh196_82800" to="684135634#2" type="veh_passenger"/>
    <trip depart="82976.87" departLane="best" from="583797089#8" id="veh197_82800" to="-483726628#0" type="veh_passenger"/>
    <trip depart="82978.66" departLane="best" from="479621758#4" id="veh199_82800" to="1041187875" type="veh_passenger"/>
    <trip depart="82980.46" departLane="best" from="479797318#4" id="veh201_82800" to="1032262905#1" type="veh_passenger"/>
    <trip depart="82981.36" departLane="best" from="-623891515#1" id="veh202_82800" to="-159455892#4" type="veh_passenger"/>
    <trip depart="82983.15" departLane="best" from="623474399#3" id="veh204_82800" to="-255416251#2" type="veh_passenger"/>
    <trip depart="82984.05" departLane="best" from="159453447#12" id="veh205_82800" to="479621745#2" type="veh_passenger"/>
    <trip depart="82984.95" departLane="best" from="-622873929#0" id="veh206_82800" to="479816723#0" type="veh_passenger"/>
    <trip depart="82985.85" departLane="best" from="245763347#0" id="veh207_82800" to="1036052086#2" type="veh_passenger"/>
    <trip depart="82986.74" departLane="best" from="479797279" id="veh208_82800" to="-100646248#2" type="veh_passenger"/>
    <trip depart="82988.54" departLane="best" from="-475316645#2" id="veh210_82800" to="156148419#2" type="veh_passenger"/>
    <trip depart="82989.44" departLane="best" from="-483796488#0" id="veh211_82800" to="773876919#3" type="veh_passenger"/>
    <trip depart="82992.13" departLane="best" from="178774219#2" id="veh214_82800" to="61163710#1" type="veh_passenger"/>
    <trip depart="82993.93" departLane="best" from="323563821#2" id="veh216_82800" to="773159596#1" type="veh_passenger"/>
    <trip depart="82994.82" departLane="best" from="665453544" id="veh217_82800" to="47070283#3" type="veh_passenger"/>
    <trip depart="82995.72" departLane="best" from="480284575" id="veh218_82800" to="235424958#4" type="veh_passenger"/>
    <trip depart="82996.62" departLane="best" from="622873931#0" id="veh219_82800" to="25931028#2" type="veh_passenger"/>
    <trip depart="82997.52" departLane="best" from="665453553" id="veh220_82800" to="489629072#3" type="veh_passenger"/>
    <trip depart="82999.31" departLane="best" from="1036079534" id="veh222_82800" to="479621758#3" type="veh_passenger"/>
    <trip depart="83002.01" departLane="best" from="-255416209#0" id="veh225_82800" to="1036342983" type="veh_passenger"/>
    <trip depart="83003.8" departLane="best" from="25931909" id="veh227_82800" to="-479797345#1" type="veh_passenger"/>
    <trip depart="83006.5" departLane="best" from="156148419#4" id="veh230_82800" to="256157279" type="veh_passenger"/>
    <trip depart="83009.19" departLane="best" from="321073225#1" id="veh233_82800" to="479816717#0" type="veh_passenger"/>
    <trip depart="83010.09" departLane="best" from="625397297" id="veh234_82800" to="491628727#0" type="veh_passenger"/>
    <trip depart="83010.98" departLane="best" from="1042716324" id="veh235_82800" to="-100646252#0" type="veh_passenger"/>
    <trip depart="83011.88" departLane="best" from="1041544550#0" id="veh236_82800" to="490216931#1" type="veh_passenger"/>
    <trip depart="83012.78" departLane="best" from="623891513" id="veh237_82800" to="773159597#3" type="veh_passenger"/>
    <trip depart="83013.68" departLane="best" from="159453449#7" id="veh238_82800" to="490192688#3-AddedOnRampEdge" type="veh_passenger"/>
    <trip depart="83014.58" departLane="best" from="25931950-AddedOffRampEdge" id="veh239_82800" to="321073948" type="veh_passenger"/>
    <trip depart="83016.37" departLane="best" from="1041504064" id="veh241_82800" to="479797321" type="veh_passenger"/>
    <trip depart="83018.17" departLane="best" from="224737849#3" id="veh243_82800" to="-479797258#6" type="veh_passenger"/>
    <trip depart="83019.96" departLane="best" from="156148397#3" id="veh245_82800" to="25934381#0" type="veh_passenger"/>
    <trip depart="83020.86" departLane="best" from="-156148407#1" id="veh246_82800" to="479751358#0" type="veh_passenger"/>
    <trip depart="83021.76" departLane="best" from="-479797279" id="veh247_82800" to="166563429#5" type="veh_passenger"/>
    <trip depart="83022.66" departLane="best" from="-216060954#0" id="veh248_82800" to="1042449170" type="veh_passenger"/>
    <trip depart="83023.55" departLane="best" from="490718877#0" id="veh249_82800" to="1042449170" type="veh_passenger"/>
    <trip depart="83025.35" departLane="best" from="1036313338" id="veh251_82800" to="-25934385#0" type="veh_passenger"/>
    <trip depart="83026.25" departLane="best" from="-1039220886" id="veh252_82800" to="255416245#1" type="veh_passenger"/>
    <trip depart="83027.15" departLane="best" from="479797258#5" id="veh253_82800" to="538068339#5" type="veh_passenger"/>
    <trip depart="83028.04" departLane="best" from="479797271" id="veh254_82800" to="490216934#0" type="veh_passenger"/>
    <trip depart="83028.94" departLane="best" from="773159597#1" id="veh255_82800" to="-623891512" type="veh_passenger"/>
    <trip depart="83030.74" departLane="best" from="-479621763#11" id="veh257_82800" to="479797310#2" type="veh_passenger"/>
    <trip depart="83031.63" departLane="best" from="267535712" id="veh258_82800" to="100646248#1" type="veh_passenger"/>
    <trip depart="83032.53" departLane="best" from="480250287#2" id="veh259_82800" to="491628727#1" type="veh_passenger"/>
    <trip depart="83033.43" departLane="best" from="-480284570" id="veh260_82800" to="379986688#5" type="veh_passenger"/>
    <trip depart="83034.33" departLane="best" from="490165001#0" id="veh261_82800" to="-479621751#0" type="veh_passenger"/>
    <trip depart="83036.12" departLane="best" from="-475316652#3" id="veh263_82800" to="-159457890#2" type="veh_passenger"/>
    <trip depart="83037.02" departLane="best" from="1040882902#0" id="veh264_82800" to="479797318#0" type="veh_passenger"/>
    <trip depart="83037.92" departLane="best" from="774852739#0" id="veh265_82800" to="1042716327" type="veh_passenger"/>
    <trip depart="83039.71" departLane="best" from="479812143#3" id="veh267_82800" to="479613108#1" type="veh_passenger"/>
    <trip depart="83041.51" departLane="best" from="623891500#1" id="veh269_82800" to="321073251" type="veh_passenger"/>
    <trip depart="83042.41" departLane="best" from="491638590#0" id="veh270_82800" to="1041521601" type="veh_passenger"/>
    <trip depart="83043.31" departLane="best" from="159455874#5" id="veh271_82800" to="1042334799" type="veh_passenger"/>
    <trip depart="83044.2" departLane="best" from="248698674#2" id="veh272_82800" to="1041286369" type="veh_passenger"/>
    <trip depart="83046" departLane="best" from="-475316645#0" id="veh274_82800" to="774852739#1" type="veh_passenger"/>
    <trip depart="83046.9" departLane="best" from="479621763#6" id="veh275_82800" to="622804124#1" type="veh_passenger"/>
    <trip depart="83048.69" departLane="best" from="483726628#1" id="veh277_82800" to="775380332#4" type="veh_passenger"/>
    <trip depart="83049.59" departLane="best" from="1036341364#0" id="veh278_82800" to="61163785#3" type="veh_passenger"/>
    <trip depart="83050.49" departLane="best" from="25931907" id="veh279_82800" to="216060954#3" type="veh_passenger"/>
    <trip depart="83051.39" departLane="best" from="159455892#3" id="veh280_82800" to="481854596#2" type="veh_passenger"/>
    <trip depart="83052.28" departLane="best" from="1036341362#1" id="veh281_82800" to="623474399#2" type="veh_passenger"/>
    <trip depart="83053.18" departLane="best" from="622873931#0" id="veh282_82800" to="-320755658#2" type="veh_passenger"/>
    <trip depart="83054.08" departLane="best" from="665451328#4" id="veh283_82800" to="1036052086#2" type="veh_passenger"/>
    <trip depart="83054.98" departLane="best" from="216065940#2" id="veh284_82800" to="390383583#0" type="veh_passenger"/>
    <trip depart="83057.67" departLane="best" from="-856908280" id="veh287_82800" to="584750383#1" type="veh_passenger"/>
    <trip depart="83059.47" departLane="best" from="480250295#0" id="veh289_82800" to="1036341355" type="veh_passenger"/>
    <trip depart="83061.26" departLane="best" from="-256157283#0" id="veh291_82800" to="480284575" type="veh_passenger"/>
    <trip depart="83062.16" departLane="best" from="235427743#0" id="veh292_82800" to="491628725#0" type="veh_passenger"/>
    <trip depart="83063.06" departLane="best" from="479812143#3" id="veh293_82800" to="479751374#1" type="veh_passenger"/>
    <trip depart="83063.96" departLane="best" from="235436489#0" id="veh294_82800" to="583797089#2" type="veh_passenger"/>
    <trip depart="83064.85" departLane="best" from="-25934395#4" id="veh295_82800" to="100646269#0" type="veh_passenger"/>
    <trip depart="83065.75" departLane="best" from="479812147#0" id="veh296_82800" to="1039133060" type="veh_passenger"/>
    <trip depart="83067.55" departLane="best" from="25931028#4" id="veh298_82800" to="156148419#3" type="veh_passenger"/>
    <trip depart="83068.44" departLane="best" from="489924065" id="veh299_82800" to="1040929341" type="veh_passenger"/>
    <trip depart="83069.34" departLane="best" from="480250296#2" id="veh300_82800" to="1036341350#3" type="veh_passenger"/>
    <trip depart="83070.24" departLane="best" from="1036114082" id="veh301_82800" to="-479621763#9" type="veh_passenger"/>
    <trip depart="83071.14" departLane="best" from="-61163785#3" id="veh302_82800" to="-479621763#5" type="veh_passenger"/>
    <trip depart="83072.04" departLane="best" from="25931033" id="veh303_82800" to="491628725#3" type="veh_passenger"/>
    <trip depart="83072.93" departLane="best" from="-491638583#3" id="veh304_82800" to="100646242#1" type="veh_passenger"/>
    <trip depart="83075.63" departLane="best" from="1036360487#6" id="veh307_82800" to="-475316653#0" type="veh_passenger"/>
    <trip depart="83076.52" departLane="best" from="-622805764#1" id="veh308_82800" to="1032987570#1" type="veh_passenger"/>
    <trip depart="83079.22" departLane="best" from="854040751" id="veh311_82800" to="25931028#5" type="veh_passenger"/>
    <trip depart="83080.12" departLane="best" from="479816723#2" id="veh312_82800" to="-479797258#1" type="veh_passenger"/>
    <trip depart="83081.91" departLane="best" from="658130902" id="veh314_82800" to="26234533#2" type="veh_passenger"/>
    <trip depart="83082.81" departLane="best" from="224737850#2" id="veh315_82800" to="159453472#0" type="veh_passenger"/>
    <trip depart="83083.71" departLane="best" from="-490718877#2" id="veh316_82800" to="-248698662" type="veh_passenger"/>
    <trip depart="83085.5" departLane="best" from="618371797" id="veh318_82800" to="1046628053" type="veh_passenger"/>
    <trip depart="83086.4" departLane="best" from="-255416142#4" id="veh319_82800" to="479621745#1" type="veh_passenger"/>
    <trip depart="83088.2" departLane="best" from="267535712" id="veh321_82800" to="1039133060" type="veh_passenger"/>
    <trip depart="83089.09" departLane="best" from="994962121#3" id="veh322_82800" to="-479621763#11" type="veh_passenger"/>
    <trip depart="83089.99" departLane="best" from="491628725#1" id="veh323_82800" to="379986688#1" type="veh_passenger"/>
    <trip depart="83091.79" departLane="best" from="256157278#0" id="veh325_82800" to="159455875#2" type="veh_passenger"/>
    <trip depart="83092.69" departLane="best" from="166563429#5" id="veh326_82800" to="625413762#1" type="veh_passenger"/>
    <trip depart="83093.58" departLane="best" from="901285521" id="veh327_82800" to="1039133060" type="veh_passenger"/>
    <trip depart="83094.48" departLane="best" from="479621743#1" id="veh328_82800" to="379986768" type="veh_passenger"/>
    <trip depart="83095.38" departLane="best" from="489606084-AddedOnRampEdge" id="veh329_82800" to="765467137" type="veh_passenger"/>
    <trip depart="83096.28" departLane="best" from="-665451328#7" id="veh330_82800" to="-775599627#0" type="veh_passenger"/>
    <trip depart="83097.17" departLane="best" from="479797300#0" id="veh331_82800" to="-480282280" type="veh_passenger"/>
    <trip depart="83098.07" departLane="best" from="-480475790#0" id="veh332_82800" to="-256157278#0" type="veh_passenger"/>
    <trip depart="83098.97" departLane="best" from="-100646234" id="veh333_82800" to="159455875#2" type="veh_passenger"/>