<routes>
    <vType id="veh_passenger" vClass="passenger"/>
    <trip depart="7200" departLane="best" from="479751369#4" id="veh0_7200" to="-159455892#6" type="veh_passenger"/>
    <trip depart="7200.9" departLane="best" from="1036346145" id="veh1_7200" to="100646295#1" type="veh_passenger"/>
    <trip depart="7201.8" departLane="best" from="486825027#0" id="veh2_7200" to="479797313#7" type="veh_passenger"/>
    <trip depart="7202.69" departLane="best" from="665453544" id="veh3_7200" to="-320755659#0" type="veh_passenger"/>
    <trip depart="7204.49" departLane="best" from="100646220#1" id="veh5_7200" to="235424958#4" type="veh_passenger"/>
    <trip depart="7205.39" departLane="best" from="-155033028#1" id="veh6_7200" to="-623891502#0" type="veh_passenger"/>
    <trip depart="7206.28" departLane="best" from="479797258#4" id="veh7_7200" to="25931028#0" type="veh_passenger"/>
    <trip depart="7207.18" departLane="best" from="100646245#3" id="veh8_7200" to="321071861#2" type="veh_passenger"/>
    <trip depart="7208.98" departLane="best" from="1041521602" id="veh10_7200" to="-480276564" type="veh_passenger"/>
    <trip depart="7209.88" departLane="best" from="773876919#5" id="veh11_7200" to="1041187875-AddedOnRampEdge" type="veh_passenger"/>
    <trip depart="7211.67" departLane="best" from="623474397#3" id="veh13_7200" to="321073948" type="veh_passenger"/>
    <trip depart="7212.57" departLane="best" from="61163715#4" id="veh14_7200" to="481854591#1" type="veh_passenger"/>
    <trip depart="7213.47" departLane="best" from="25931033" id="veh15_7200" to="854001005#0" type="veh_passenger"/>
    <trip depart="7215.26" departLane="best" from="622809059#0" id="veh17_7200" to="475316653#4" type="veh_passenger"/>
    <trip depart="7216.16" departLane="best" from="625413783#2" id="veh18_7200" to="320755665" type="veh_passenger"/>
    <trip depart="7219.75" departLane="best" from="-379986746#0" id="veh22_7200" to="1036341357#0" type="veh_passenger"/>
    <trip depart="7221.55" departLane="best" from="1042693362#0" id="veh24_7200" to="-775380332#0" type="veh_passenger"/>
    <trip depart="7222.45" departLane="best" from="1036341360#1" id="veh25_7200" to="743386900" type="veh_passenger"/>
    <trip depart="7223.34" departLane="best" from="479797253#1" id="veh26_7200" to="379986751" type="veh_passenger"/>
    <trip depart="7225.14" departLane="best" from="-480252897#2" id="veh28_7200" to="1042449170" type="veh_passenger"/>
    <trip depart="7226.04" departLane="best" from="901285519#0" id="veh29_7200" to="479621763#4" type="veh_passenger"/>
    <trip depart="7227.83" departLane="best" from="623128861" id="veh31_7200" to="491638585" type="veh_passenger"/>
    <trip depart="7230.53" departLane="best" from="-775380332#5" id="veh34_7200" to="765449928" type="veh_passenger"/>
    <trip depart="7232.32" departLane="best" from="479797277#5" id="veh36_7200" to="1042716326" type="veh_passenger"/>
    <trip depart="7233.22" departLane="best" from="742718528#2" id="veh37_7200" to="166563426#4" type="veh_passenger"/>
    <trip depart="7234.12" departLane="best" from="1036341358#0" id="veh38_7200" to="1036060565" type="veh_passenger"/>
    <trip depart="7235.01" departLane="best" from="26234656#0" id="veh39_7200" to="1036099955" type="veh_passenger"/>
    <trip depart="7235.91" departLane="best" from="321073225#2" id="veh40_7200" to="684128578#0" type="veh_passenger"/>
    <trip depart="7236.81" departLane="best" from="156148402#2" id="veh41_7200" to="100646256#0" type="veh_passenger"/>
    <trip depart="7237.71" departLane="best" from="994962124#6" id="veh42_7200" to="235424974#1" type="veh_passenger"/>
    <trip depart="7239.5" departLane="best" from="-475316653#5" id="veh44_7200" to="479613108#2" type="veh_passenger"/>
    <trip depart="7240.4" departLane="best" from="583797089#1" id="veh45_7200" to="156148413#0" type="veh_passenger"/>
    <trip depart="7241.3" departLane="best" from="-248698662" id="veh46_7200" to="1042676039" type="veh_passenger"/>
    <trip depart="7242.2" departLane="best" from="994962124#3" id="veh47_7200" to="248698674#2" type="veh_passenger"/>
    <trip depart="7243.09" departLane="best" from="854001005#0" id="veh48_7200" to="625413762#3" type="veh_passenger"/>
    <trip depart="7243.99" departLane="best" from="-1036047409#0" id="veh49_7200" to="480284576#2" type="veh_passenger"/>
    <trip depart="7244.89" departLane="best" from="479797341#1-AddedOnRampEdge" id="veh50_7200" to="255416224#2" type="veh_passenger"/>
    <trip depart="7245.79" departLane="best" from="1036341360#0" id="veh51_7200" to="479621763#7" type="veh_passenger"/>
    <trip depart="7246.69" departLane="best" from="-475319370" id="veh52_7200" to="159453447#8" type="veh_passenger"/>
    <trip depart="7247.58" departLane="best" from="178774212#0" id="veh53_7200" to="773159597#3" type="veh_passenger"/>
    <trip depart="7249.38" departLane="best" from="248698668#12" id="veh55_7200" to="-490165001#1" type="veh_passenger"/>
    <trip depart="7251.17" departLane="best" from="1039159932#1" id="veh57_7200" to="479621763#11" type="veh_passenger"/>
    <trip depart="7252.97" departLane="best" from="491462355" id="veh59_7200" to="255416245#1" type="veh_passenger"/>
    <trip depart="7253.87" departLane="best" from="491638583#0" id="veh60_7200" to="255416142#2" type="veh_passenger"/>
    <trip depart="7254.77" departLane="best" from="-100646217#1" id="veh61_7200" to="1040911960" type="veh_passenger"/>
    <trip depart="7259.26" departLane="best" from="-256157283#0" id="veh66_7200" to="216065938#0" type="veh_passenger"/>
    <trip depart="7260.15" departLane="best" from="-248698668#10" id="veh67_7200" to="491628725#1-AddedOffRampEdge" type="veh_passenger"/>
    <trip depart="7261.05" departLane="best" from="491628725#1-AddedOffRampEdge" id="veh68_7200" to="-479797283#1" type="veh_passenger"/>
    <trip depart="7261.95" departLane="best" from="224737854#2" id="veh69_7200" to="25931028#3" type="veh_passenger"/>
    <trip depart="7264.64" departLane="best" from="25931909" id="veh72_7200" to="481854591#1" type="veh_passenger"/>
    <trip depart="7265.54" departLane="best" from="-625413768#3" id="veh73_7200" to="1039159932#1" type="veh_passenger"/>
    <trip depart="7266.44" departLane="best" from="994962124#2" id="veh74_7200" to="479797239#0" type="veh_passenger"/>
    <trip depart="7268.23" departLane="best" from="-479621745#7" id="veh76_7200" to="1032262905#1" type="veh_passenger"/>
    <trip depart="7269.13" departLane="best" from="1041504065" id="veh77_7200" to="321071861#1" type="veh_passenger"/>
    <trip depart="7270.03" departLane="best" from="1032665742" id="veh78_7200" to="100646260#0" type="veh_passenger"/>
    <trip depart="7270.93" departLane="best" from="-248698668#8" id="veh79_7200" to="479621745#7" type="veh_passenger"/>
    <trip depart="7272.72" departLane="best" from="625413768#2" id="veh81_7200" to="-255416245#0" type="veh_passenger"/>
    <trip depart="7274.52" departLane="best" from="-994875416" id="veh83_7200" to="-479797308" type="veh_passenger"/>
    <trip depart="7275.42" departLane="best" from="742727484#1" id="veh84_7200" to="26234533#0" type="veh_passenger"/>
    <trip depart="7276.31" departLane="best" from="224737852#6" id="veh85_7200" to="538068606-AddedOffRampEdge" type="veh_passenger"/>
    <trip depart="7277.21" departLane="best" from="-320758120" id="veh86_7200" to="156148432#0" type="veh_passenger"/>
    <trip depart="7279.01" departLane="best" from="481854588#3" id="veh88_7200" to="479797313#0" type="veh_passenger"/>
    <trip depart="7280.8" departLane="best" from="156148407#0" id="veh90_7200" to="1041235840#1-AddedOffRampEdge" type="veh_passenger"/>
    <trip depart="7281.7" departLane="best" from="625413783#2" id="veh91_7200" to="1036062887" type="veh_passenger"/>
    <trip depart="7282.6" departLane="best" from="-61163715#2" id="veh92_7200" to="159455874#9" type="veh_passenger"/>
    <trip depart="7283.5" departLane="best" from="159453472#0" id="veh93_7200" to="1036341357#1" type="veh_passenger"/>
    <trip depart="7285.29" departLane="best" from="166563429#6" id="veh95_7200" to="625413766#0" type="veh_passenger"/>
    <trip depart="7287.09" departLane="best" from="996026061#1" id="veh97_7200" to="622873931#7" type="veh_passenger"/>
    <trip depart="7287.99" departLane="best" from="854001000#1" id="veh98_7200" to="742727471" type="veh_passenger"/>
    <trip depart="7289.78" departLane="best" from="235427270" id="veh100_7200" to="100646217#3" type="veh_passenger"/>
    <trip depart="7292.47" departLane="best" from="1036341358#1" id="veh103_7200" to="538068606-AddedOffRampEdge" type="veh_passenger"/>
    <trip depart="7293.37" departLane="best" from="178774217#1" id="veh104_7200" to="156148417" type="veh_passenger"/>
    <trip depart="7295.17" departLane="best" from="25934395#5" id="veh106_7200" to="480283416#1" type="veh_passenger"/>
    <trip depart="7296.07" departLane="best" from="-480250296#0" id="veh107_7200" to="1036360487#6" type="veh_passenger"/>
    <trip depart="7296.96" departLane="best" from="854001000#0" id="veh108_7200" to="320758120" type="veh_passenger"/>
    <trip depart="7297.86" departLane="best" from="25931909" id="veh109_7200" to="490192688#5" type="veh_passenger"/>
    <trip depart="7298.76" departLane="best" from="-234517427#4" id="veh110_7200" to="320758139" type="veh_passenger"/>
    <trip depart="7299.66" departLane="best" from="248698670#0" id="veh111_7200" to="623891500#1" type="veh_passenger"/>
    <trip depart="7300.55" departLane="best" from="-480250299#0" id="veh112_7200" to="774852739#1" type="veh_passenger"/>
    <trip depart="7302.35" departLane="best" from="323563821#1" id="veh114_7200" to="479797313#4" type="veh_passenger"/>
    <trip depart="7305.04" departLane="best" from="323563821#0" id="veh117_7200" to="475316658#1" type="veh_passenger"/>
    <trip depart="7305.94" departLane="best" from="159453449#8" id="veh118_7200" to="320758139" type="veh_passenger"/>
    <trip depart="7306.84" departLane="best" from="256157278#1" id="veh119_7200" to="742727484#3" type="veh_passenger"/>
    <trip depart="7307.74" departLane="best" from="-658095569#2" id="veh120_7200" to="480276562" type="veh_passenger"/>
    <trip depart="7308.63" departLane="best" from="1036060565" id="veh121_7200" to="1042716327" type="veh_passenger"/>
    <trip depart="7309.53" departLane="best" from="479797313#7" id="veh122_7200" to="1038266651" type="veh_passenger"/>
    <trip depart="7310.43" departLane="best" from="1040925852" id="veh123_7200" to="490213894-AddedOffRampEdge" type="veh_passenger"/>
    <trip depart="7311.33" departLane="best" from="-248698670#2" id="veh124_7200" to="166563426#3" type="veh_passenger"/>
    <trip depart="7312.23" departLane="best" from="-255416142#1" id="veh125_7200" to="100646208" type="veh_passenger"/>
    <trip depart="7313.12" departLane="best" from="1036341358#1" id="veh126_7200" to="742727484#0" type="veh_passenger"/>
    <trip depart="7314.02" departLane="best" from="1042693361#1" id="veh127_7200" to="-480282281#0" type="veh_passenger"/>
    <trip depart="7314.92" departLane="best" from="622873931#7" id="veh128_7200" to="480250293#0" type="veh_passenger"/>
    <trip depart="7315.82" departLane="best" from="475316653#6" id="veh129_7200" to="854052897#4" type="veh_passenger"/>
    <trip depart="7316.71" departLane="best" from="479797277#2" id="veh130_7200" to="-100646260#1" type="veh_passenger"/>
    <trip depart="7317.61" departLane="best" from="618364867#1" id="veh131_7200" to="1038110939" type="veh_passenger"/>
    <trip depart="7318.51" departLane="best" from="479797310#0" id="veh132_7200" to="765449926#0" type="veh_passenger"/>
    <trip depart="7320.31" departLane="best" from="-475316645#2" id="veh134_7200" to="25931028#5" type="veh_passenger"/>
    <trip depart="7323" departLane="best" from="479621763#12" id="veh137_7200" to="1036099956#3" type="veh_passenger"/>
    <trip depart="7323.9" departLane="best" from="235427743#0" id="veh138_7200" to="696730624" type="veh_passenger"/>
    <trip depart="7324.8" departLane="best" from="623474397#0" id="veh139_7200" to="-379986688#2" type="veh_passenger"/>
    <trip depart="7325.69" departLane="best" from="159453472#4" id="veh140_7200" to="1036341355" type="veh_passenger"/>
    <trip depart="7326.59" departLane="best" from="-100646242#1" id="veh141_7200" to="491632371#2" type="veh_passenger"/>
    <trip depart="7327.49" departLane="best" from="479621774#2" id="veh142_7200" to="1036099953" type="veh_passenger"/>
    <trip depart="7328.39" departLane="best" from="489606090" id="veh143_7200" to="25931028#4" type="veh_passenger"/>
    <trip depart="7329.28" departLane="best" from="159455874#4" id="veh144_7200" to="-100646264#0" type="veh_passenger"/>
    <trip depart="7330.18" departLane="best" from="-255416153" id="veh145_7200" to="665451330#1" type="veh_passenger"/>
    <trip depart="7331.98" departLane="best" from="622873934#0" id="veh147_7200" to="320758130#1" type="veh_passenger"/>
    <trip depart="7332.88" departLane="best" from="-479816722#1" id="veh148_7200" to="-479797258#5" type="veh_passenger"/>
    <trip depart="7333.77" departLane="best" from="1040260533" id="veh149_7200" to="684128578#2" type="veh_passenger"/>
    <trip depart="7334.67" departLane="best" from="583797089#8" id="veh150_7200" to="625413762#3" type="veh_passenger"/>
    <trip depart="7335.57" departLane="best" from="684128578#0" id="veh151_7200" to="-775380332#4" type="veh_passenger"/>
    <trip depart="7337.36" departLane="best" from="491638583#6" id="veh153_7200" to="665451330#2" type="veh_passenger"/>
    <trip depart="7338.26" departLane="best" from="156148419#1" id="veh154_7200" to="475319371#0" type="veh_passenger"/>
    <trip depart="7340.06" departLane="best" from="625418511" id="veh156_7200" to="854040750" type="veh_passenger"/>
    <trip depart="7343.65" departLane="best" from="61163710#13" id="veh160_7200" to="625413783#2" type="veh_passenger"/>
    <trip depart="7345.44" departLane="best" from="538068340#1" id="veh162_7200" to="-479613101#1" type="veh_passenger"/>
    <trip depart="7347.24" departLane="best" from="100646256#1" id="veh164_7200" to="618371794" type="veh_passenger"/>
    <trip depart="7348.14" departLane="best" from="216060954#1" id="veh165_7200" to="1039133060" type="veh_passenger"/>
    <trip depart="7349.04" departLane="best" from="583797089#7" id="veh166_7200" to="1032987570#1" type="veh_passenger"/>
    <trip depart="7349.93" departLane="best" from="-1042698679" id="veh167_7200" to="-622804129#0" type="veh_passenger"/>
    <trip depart="7350.83" departLane="best" from="1041235840#0" id="veh168_7200" to="625413783#3" type="veh_passenger"/>
    <trip depart="7351.73" departLane="best" from="479751865#1" id="veh169_7200" to="1042728028#1" type="veh_passenger"/>
    <trip depart="7352.63" departLane="best" from="854052892-AddedOffRampEdge" id="veh170_7200" to="255416223#1" type="veh_passenger"/>
    <trip depart="7353.52" departLane="best" from="764267604" id="veh171_7200" to="-479621752#0" type="veh_passenger"/>
    <trip depart="7354.42" departLane="best" from="854001002#1" id="veh172_7200" to="-490165001#1" type="veh_passenger"/>
    <trip depart="7355.32" departLane="best" from="775122579#1" id="veh173_7200" to="1036114082" type="veh_passenger"/>
    <trip depart="7356.22" departLane="best" from="-475316653#0" id="veh174_7200" to="159453447#8" type="veh_passenger"/>
    <trip depart="7357.12" departLane="best" from="481854585" id="veh175_7200" to="1039159937" type="veh_passenger"/>
    <trip depart="7358.91" departLane="best" from="123423117#1" id="veh177_7200" to="320755661#1" type="veh_passenger"/>
    <trip depart="7359.81" departLane="best" from="1036338535" id="veh178_7200" to="480250299#1" type="veh_passenger"/>
    <trip depart="7360.71" departLane="best" from="-100646220#2" id="veh179_7200" to="742727470" type="veh_passenger"/>
    <trip depart="7362.5" departLane="best" from="489606090" id="veh181_7200" to="479797310#7" type="veh_passenger"/>
    <trip depart="7363.4" departLane="best" from="1042449169#1" id="veh182_7200" to="-255416229#2" type="veh_passenger"/>
    <trip depart="7365.2" departLane="best" from="1040882903" id="veh184_7200" to="623138417" type="veh_passenger"/>
    <trip depart="7366.09" departLane="best" from="480284576#1" id="veh185_7200" to="1038324580" type="veh_passenger"/>
    <trip depart="7366.99" departLane="best" from="1040591005" id="veh186_7200" to="145126347" type="veh_passenger"/>
    <trip depart="7367.89" departLane="best" from="156148404#3" id="veh187_7200" to="1036360487#5" type="veh_passenger"/>
    <trip depart="7368.79" departLane="best" from="-479621763#5" id="veh188_7200" to="156148404#2" type="veh_passenger"/>
    <trip depart="7369.69" departLane="best" from="764267605" id="veh189_7200" to="479797318#0" type="veh_passenger"/>
    <trip depart="7371.48" departLane="best" from="1039159935" id="veh191_7200" to="25931028#2" type="veh_passenger"/>
    <trip depart="7372.38" departLane="best" from="-100646217#0" id="veh192_7200" to="1036342983" type="veh_passenger"/>
    <trip depart="7373.28" departLane="best" from="159455874#8" id="veh193_7200" to="320758122#1" type="veh_passenger"/>
    <trip depart="7375.07" departLane="best" from="166563429#4" id="veh195_7200" to="100646217#3" type="veh_passenger"/>
    <trip depart="7375.97" departLane="best" from="224737854#0" id="veh196_7200" to="684135634#2" type="veh_passenger"/>
    <trip depart="7376.87" departLane="best" from="583797089#8" id="veh197_7200" to="-483726628#0" type="veh_passenger"/>
    <trip depart="7378.66" departLane="best" from="479621758#4" id="veh199_7200" to="1041187875" type="veh_passenger"/>
    <trip depart="7380.46" departLane="best" from="479797318#4" id="veh201_7200" to="1032262905#1" type="veh_passenger"/>
    <trip depart="7381.36" departLane="best" from="-623891515#1" id="veh202_7200" to="-159455892#4" type="veh_passenger"/>
    <trip depart="7383.15" departLane="best" from="623474399#3" id="veh204_7200" to="-255416251#2" type="veh_passenger"/>
    <trip depart="7384.05" departLane="best" from="159453447#12" id="veh205_7200" to="479621745#2" type="veh_passenger"/>
    <trip depart="7384.95" departLane="best" from="-622873929#0" id="veh206_7200" to="479816723#0" type="veh_passenger"/>
    <trip depart="7385.85" departLane="best" from="245763347#0" id="veh207_7200" to="1036052086#2" type="veh_passenger"/>
    <trip depart="7386.74" departLane="best" from="479797279" id="veh208_7200" to="-100646248#2" type="veh_passenger"/>
    <trip depart="7388.54" departLane="best" from="-475316645#2" id="veh210_7200" to="156148419#2" type="veh_passenger"/>
    <trip depart="7389.44" departLane="best" from="-483796488#0" id="veh211_7200" to="773876919#3" type="veh_passenger"/>
    <trip depart="7392.13" departLane="best" from="178774219#2" id="veh214_7200" to="61163710#1" type="veh_passenger"/>
    <trip depart="7393.93" departLane="best" from="323563821#2" id="veh216_7200" to="773159596#1" type="veh_passenger"/>
    <trip depart="7394.82" departLane="best" from="665453544" id="veh217_7200" to="47070283#3" type="veh_passenger"/>
    <trip depart="7395.72" departLane="best" from="480284575" id="veh218_7200" to="235424958#4" type="veh_passenger"/>
    <trip depart="7396.62" departLane="best" from="622873931#0" id="veh219_7200" to="25931028#2" type="veh_passenger"/>
    <trip depart="7397.52" departLane="best" from="665453553" id="veh220_7200" to="489629072#3" type="veh_passenger"/>
    <trip depart="7399.31" departLane="best" from="1036079534" id="veh222_7200" to="479621758#3" type="veh_passenger"/>
    <trip depart="7402.01" departLane="best" from="-255416209#0" id="veh225_7200" to="1036342983" type="veh_passenger"/>
    <trip depart="7403.8" departLane="best" from="25931909" id="veh227_7200" to="-479797345#1" type="veh_passenger"/>
    <trip depart="7406.5" departLane="best" from="156148419#4" id="veh230_7200" to="256157279" type="veh_passenger"/>
    <trip depart="7409.19" departLane="best" from="321073225#1" id="veh233_7200" to="479816717#0" type="veh_passenger"/>
    <trip depart="7410.09" departLane="best" from="625397297" id="veh234_7200" to="491628727#0" type="veh_passenger"/>
    <trip depart="7410.98" departLane="best" from="1042716324" id="veh235_7200" to="-100646252#0" type="veh_passenger"/>
    <trip depart="7411.88" departLane="best" from="1041544550#0" id="veh236_7200" to="490216931#1" type="veh_passenger"/>
    <trip depart="7412.78" departLane="best" from="623891513" id="veh237_7200" to="773159597#3" type="veh_passenger"/>
    <trip depart="7413.68" departLane="best" from="159453449#7" id="veh238_7200" to="490192688#3-AddedOnRampEdge" type="veh_passenger"/>
    <trip depart="7414.58" departLane="best" from="25931950-AddedOffRampEdge" id="veh239_7200" to="321073948" type="veh_passenger"/>
    <trip depart="7416.37" departLane="best" from="1041504064" id="veh241_7200" to="479797321" type="veh_passenger"/>
    <trip depart="7418.17" departLane="best" from="224737849#3" id="veh243_7200" to="-479797258#6" type="veh_passenger"/>
    <trip depart="7419.96" departLane="best" from="156148397#3" id="veh245_7200" to="25934381#0" type="veh_passenger"/>
    <trip depart="7420.86" departLane="best" from="-156148407#1" id="veh246_7200" to="479751358#0" type="veh_passenger"/>
    <trip depart="7421.76" departLane="best" from="-479797279" id="veh247_7200" to="166563429#5" type="veh_passenger"/>
    <trip depart="7422.66" departLane="best" from="-216060954#0" id="veh248_7200" to="1042449170" type="veh_passenger"/>
    <trip depart="7423.55" departLane="best" from="490718877#0" id="veh249_7200" to="1042449170" type="veh_passenger"/>
    <trip depart="7425.35" departLane="best" from="1036313338" id="veh251_7200" to="-25934385#0" type="veh_passenger"/>
    <trip depart="7426.25" departLane="best" from="-1039220886" id="veh252_7200" to="255416245#1" type="veh_passenger"/>
    <trip depart="7427.15" departLane="best" from="479797258#5" id="veh253_7200" to="538068339#5" type="veh_passenger"/>
    <trip depart="7428.04" departLane="best" from="479797271" id="veh254_7200" to="490216934#0" type="veh_passenger"/>
    <trip depart="7428.94" departLane="best" from="773159597#1" id="veh255_7200" to="-623891512" type="veh_passenger"/>
    <trip depart="7430.74" departLane="best" from="-479621763#11" id="veh257_7200" to="479797310#2" type="veh_passenger"/>
    <trip depart="7431.63" departLane="best" from="267535712" id="veh258_7200" to="100646248#1" type="veh_passenger"/>
    <trip depart="7432.53" departLane="best" from="480250287#2" id="veh259_7200" to="491628727#1" type="veh_passenger"/>
    <trip depart="7433.43" departLane="best" from="-480284570" id="veh260_7200" to="379986688#5" type="veh_passenger"/>
    <trip depart="7434.33" departLane="best" from="490165001#0" id="veh261_7200" to="-479621751#0" type="veh_passenger"/>
    <trip depart="7436.12" departLane="best" from="-475316652#3" id="veh263_7200" to="-159457890#2" type="veh_passenger"/>
    <trip depart="7437.02" departLane="best" from="1040882902#0" id="veh264_7200" to="479797318#0" type="veh_passenger"/>
    <trip depart="7437.92" departLane="best" from="774852739#0" id="veh265_7200" to="1042716327" type="veh_passenger"/>
    <trip depart="7439.71" departLane="best" from="479812143#3" id="veh267_7200" to="479613108#1" type="veh_passenger"/>
    <trip depart="7441.51" departLane="best" from="623891500#1" id="veh269_7200" to="321073251" type="veh_passenger"/>
    <trip depart="7442.41" departLane="best" from="491638590#0" id="veh270_7200" to="1041521601" type="veh_passenger"/>
    <trip depart="7443.31" departLane="best" from="159455874#5" id="veh271_7200" to="1042334799" type="veh_passenger"/>
    <trip depart="7444.2" departLane="best" from="248698674#2" id="veh272_7200" to="1041286369" type="veh_passenger"/>
    <trip depart="7446" departLane="best" from="-475316645#0" id="veh274_7200" to="774852739#1" type="veh_passenger"/>
    <trip depart="7446.9" departLane="best" from="479621763#6" id="veh275_7200" to="622804124#1" type="veh_passenger"/>
    <trip depart="7448.69" departLane="best" from="483726628#1" id="veh277_7200" to="775380332#4" type="veh_passenger"/>
    <trip depart="7449.59" departLane="best" from="1036341364#0" id="veh278_7200" to="61163785#3" type="veh_passenger"/>
    <trip depart="7450.49" departLane="best" from="25931907" id="veh279_7200" to="216060954#3" type="veh_passenger"/>
    <trip depart="7451.39" departLane="best" from="159455892#3" id="veh280_7200" to="481854596#2" type="veh_passenger"/>
    <trip depart="7452.28" departLane="best" from="1036341362#1" id="veh281_7200" to="623474399#2" type="veh_passenger"/>
    <trip depart="7453.18" departLane="best" from="622873931#0" id="veh282_7200" to="-320755658#2" type="veh_passenger"/>
    <trip depart="7454.08" departLane="best" from="665451328#4" id="veh283_7200" to="1036052086#2" type="veh_passenger"/>
    <trip depart="7454.98" departLane="best" from="216065940#2" id="veh284_7200" to="390383583#0" type="veh_passenger"/>
    <trip depart="7457.67" departLane="best" from="-856908280" id="veh287_7200" to="584750383#1" type="veh_passenger"/>
    <trip depart="7459.47" departLane="best" from="480250295#0" id="veh289_7200" to="1036341355" type="veh_passenger"/>
    <trip depart="7461.26" departLane="best" from="-256157283#0" id="veh291_7200" to="480284575" type="veh_passenger"/>
    <trip depart="7462.16" departLane="best" from="235427743#0" id="veh292_7200" to="491628725#0" type="veh_passenger"/>
    <trip depart="7463.06" departLane="best" from="479812143#3" id="veh293_7200" to="479751374#1" type="veh_passenger"/>
    <trip depart="7463.96" departLane="best" from="235436489#0" id="veh294_7200" to="583797089#2" type="veh_passenger"/>
    <trip depart="7464.85" departLane="best" from="-25934395#4" id="veh295_7200" to="100646269#0" type="veh_passenger"/>
    <trip depart="7465.75" departLane="best" from="479812147#0" id="veh296_7200" to="1039133060" type="veh_passenger"/>
    <trip depart="7467.55" departLane="best" from="25931028#4" id="veh298_7200" to="156148419#3" type="veh_passenger"/>
    <trip depart="7468.44" departLane="best" from="489924065" id="veh299_7200" to="1040929341" type="veh_passenger"/>
    <trip depart="7469.34" departLane="best" from="480250296#2" id="veh300_7200" to="1036341350#3" type="veh_passenger"/>
    <trip depart="7470.24" departLane="best" from="1036114082" id="veh301_7200" to="-479621763#9" type="veh_passenger"/>
    <trip depart="7471.14" departLane="best" from="-61163785#3" id="veh302_7200" to="-479621763#5" type="veh_passenger"/>
    <trip depart="7472.04" departLane="best" from="25931033" id="veh303_7200" to="491628725#3" type="veh_passenger"/>
    <trip depart="7472.93" departLane="best" from="-491638583#3" id="veh304_7200" to="100646242#1" type="veh_passenger"/>
    <trip depart="7475.63" departLane="best" from="1036360487#6" id="veh307_7200" to="-475316653#0" type="veh_passenger"/>
    <trip depart="7476.52" departLane="best" from="-622805764#1" id="veh308_7200" to="1032987570#1" type="veh_passenger"/>
    <trip depart="7479.22" departLane="best" from="854040751" id="veh311_7200" to="25931028#5" type="veh_passenger"/>
    <trip depart="7480.12" departLane="best" from="479816723#2" id="veh312_7200" to="-479797258#1" type="veh_passenger"/>
    <trip depart="7481.91" departLane="best" from="658130902" id="veh314_7200" to="26234533#2" type="veh_passenger"/>
    <trip depart="7482.81" departLane="best" from="224737850#2" id="veh315_7200" to="159453472#0" type="veh_passenger"/>
    <trip depart="7483.71" departLane="best" from="-490718877#2" id="veh316_7200" to="-248698662" type="veh_passenger"/>
    <trip depart="7485.5" departLane="best" from="618371797" id="veh318_7200" to="1046628053" type="veh_passenger"/>
    <trip depart="7486.4" departLane="best" from="-255416142#4" id="veh319_7200" to="479621745#1" type="veh_passenger"/>
    <trip depart="7488.2" departLane="best" from="267535712" id="veh321_7200" to="1039133060" type="veh_passenger"/>
    <trip depart="7489.09" departLane="best" from="994962121#3" id="veh322_7200" to="-479621763#11" type="veh_passenger"/>
    <trip depart="7489.99" departLane="best" from="491628725#1" id="veh323_7200" to="379986688#1" type="veh_passenger"/>
    <trip depart="7491.79" departLane="best" from="256157278#0" id="veh325_7200" to="159455875#2" type="veh_passenger"/>
    <trip depart="7492.69" departLane="best" from="166563429#5" id="veh326_7200" to="625413762#1" type="veh_passenger"/>
    <trip depart="7493.58" departLane="best" from="901285521" id="veh327_7200" to="1039133060" type="veh_passenger"/>
    <trip depart="7494.48" departLane="best" from="479621743#1" id="veh328_7200" to="379986768" type="veh_passenger"/>
    <trip depart="7495.38" departLane="best" from="489606084-AddedOnRampEdge" id="veh329_7200" to="765467137" type="veh_passenger"/>
    <trip depart="7496.28" departLane="best" from="-665451328#7" id="veh330_7200" to="-775599627#0" type="veh_passenger"/>
    <trip depart="7497.17" departLane="best" from="479797300#0" id="veh331_7200" to="-480282280" type="veh_passenger"/>
    <trip depart="7498.07" departLane="best" from="-480475790#0" id="veh332_7200" to="-256157278#0" type="veh_passenger"/>
    <trip depart="7498.97" departLane="best" from="-100646234" id="veh333_7200" to="159455875#2" type="veh_passenger"/>
    <trip depart="7499.87" departLane="best" from="323563821#0" id="veh334_7200" to="1036360484" type="veh_passenger"/>
    <trip depart="7500.77" departLane="best" from="1032987570#0" id="veh335_7200" to="480250296#3" type="veh_passenger"/>
    <trip depart="7501.66" departLane="best" from="480250298#0" id="veh336_7200" to="159455892#3" type="veh_passenger"/>
    <trip depart="7504.36" departLane="best" from="479797300#3" id="veh339_7200" to="742727484#1" type="veh_passenger"/>