<routes>
    <vType id="veh_passenger" vClass="passenger"/>
    <trip depart="10800" departLane="best" from="479751369#4" id="veh0_10800" to="-159455892#6" type="veh_passenger"/>
    <trip depart="10800.9" departLane="best" from="1036346145" id="veh1_10800" to="100646295#1" type="veh_passenger"/>
    <trip depart="10801.8" departLane="best" from="486825027#0" id="veh2_10800" to="479797313#7" type="veh_passenger"/>
    <trip depart="10802.69" departLane="best" from="665453544" id="veh3_10800" to="-320755659#0" type="veh_passenger"/>
    <trip depart="10804.49" departLane="best" from="100646220#1" id="veh5_10800" to="235424958#4" type="veh_passenger"/>
    <trip depart="10805.39" departLane="best" from="-155033028#1" id="veh6_10800" to="-623891502#0" type="veh_passenger"/>
    <trip depart="10806.28" departLane="best" from="479797258#4" id="veh7_10800" to="25931028#0" type="veh_passenger"/>
    <trip depart="10807.18" departLane="best" from="100646245#3" id="veh8_10800" to="321071861#2" type="veh_passenger"/>
    <trip depart="10808.98" departLane="best" from="1041521602" id="veh10_10800" to="-480276564" type="veh_passenger"/>
    <trip depart="10809.88" departLane="best" from="773876919#5" id="veh11_10800" to="1041187875-AddedOnRampEdge" type="veh_passenger"/>
    <trip depart="10811.67" departLane="best" from="623474397#3" id="veh13_10800" to="321073948" type="veh_passenger"/>
    <trip depart="10812.57" departLane="best" from="61163715#4" id="veh14_10800" to="481854591#1" type="veh_passenger"/>
    <trip depart="10813.47" departLane="best" from="25931033" id="veh15_10800" to="854001005#0" type="veh_passenger"/>
    <trip depart="10815.26" departLane="best" from="622809059#0" id="veh17_10800" to="475316653#4" type="veh_passenger"/>
    <trip depart="10816.16" departLane="best" from="625413783#2" id="veh18_10800" to="320755665" type="veh_passenger"/>
    <trip depart="10819.75" departLane="best" from="-379986746#0" id="veh22_10800" to="1036341357#0" type="veh_passenger"/>
    <trip depart="10821.55" departLane="best" from="1042693362#0" id="veh24_10800" to="-775380332#0" type="veh_passenger"/>
    <trip depart="10822.45" departLane="best" from="1036341360#1" id="veh25_10800" to="743386900" type="veh_passenger"/>
    <trip depart="10823.34" departLane="best" from="479797253#1" id="veh26_10800" to="379986751" type="veh_passenger"/>
    <trip depart="10825.14" departLane="best" from="-480252897#2" id="veh28_10800" to="1042449170" type="veh_passenger"/>
    <trip depart="10826.04" departLane="best" from="901285519#0" id="veh29_10800" to="479621763#4" type="veh_passenger"/>
    <trip depart="10827.83" departLane="best" from="623128861" id="veh31_10800" to="491638585" type="veh_passenger"/>
    <trip depart="10830.53" departLane="best" from="-775380332#5" id="veh34_10800" to="765449928" type="veh_passenger"/>
    <trip depart="10832.32" departLane="best" from="479797277#5" id="veh36_10800" to="1042716326" type="veh_passenger"/>
    <trip depart="10833.22" departLane="best" from="742718528#2" id="veh37_10800" to="166563426#4" type="veh_passenger"/>
    <trip depart="10834.12" departLane="best" from="1036341358#0" id="veh38_10800" to="1036060565" type="veh_passenger"/>
    <trip depart="10835.01" departLane="best" from="26234656#0" id="veh39_10800" to="1036099955" type="veh_passenger"/>
    <trip depart="10835.91" departLane="best" from="321073225#2" id="veh40_10800" to="684128578#0" type="veh_passenger"/>
    <trip depart="10836.81" departLane="best" from="156148402#2" id="veh41_10800" to="100646256#0" type="veh_passenger"/>
    <trip depart="10837.71" departLane="best" from="994962124#6" id="veh42_10800" to="235424974#1" type="veh_passenger"/>
    <trip depart="10839.5" departLane="best" from="-475316653#5" id="veh44_10800" to="479613108#2" type="veh_passenger"/>
    <trip depart="10840.4" departLane="best" from="583797089#1" id="veh45_10800" to="156148413#0" type="veh_passenger"/>
    <trip depart="10841.3" departLane="best" from="-248698662" id="veh46_10800" to="1042676039" type="veh_passenger"/>
    <trip depart="10842.2" departLane="best" from="994962124#3" id="veh47_10800" to="248698674#2" type="veh_passenger"/>
    <trip depart="10843.09" departLane="best" from="854001005#0" id="veh48_10800" to="625413762#3" type="veh_passenger"/>
    <trip depart="10843.99" departLane="best" from="-1036047409#0" id="veh49_10800" to="480284576#2" type="veh_passenger"/>
    <trip depart="10844.89" departLane="best" from="479797341#1-AddedOnRampEdge" id="veh50_10800" to="255416224#2" type="veh_passenger"/>
    <trip depart="10845.79" departLane="best" from="1036341360#0" id="veh51_10800" to="479621763#7" type="veh_passenger"/>
    <trip depart="10846.69" departLane="best" from="-475319370" id="veh52_10800" to="159453447#8" type="veh_passenger"/>
    <trip depart="10847.58" departLane="best" from="178774212#0" id="veh53_10800" to="773159597#3" type="veh_passenger"/>
    <trip depart="10849.38" departLane="best" from="248698668#12" id="veh55_10800" to="-490165001#1" type="veh_passenger"/>
    <trip depart="10851.17" departLane="best" from="1039159932#1" id="veh57_10800" to="479621763#11" type="veh_passenger"/>
    <trip depart="10852.97" departLane="best" from="491462355" id="veh59_10800" to="255416245#1" type="veh_passenger"/>
    <trip depart="10853.87" departLane="best" from="491638583#0" id="veh60_10800" to="255416142#2" type="veh_passenger"/>
    <trip depart="10854.77" departLane="best" from="-100646217#1" id="veh61_10800" to="1040911960" type="veh_passenger"/>
    <trip depart="10859.26" departLane="best" from="-256157283#0" id="veh66_10800" to="216065938#0" type="veh_passenger"/>
    <trip depart="10860.15" departLane="best" from="-248698668#10" id="veh67_10800" to="491628725#1-AddedOffRampEdge" type="veh_passenger"/>
    <trip depart="10861.05" departLane="best" from="491628725#1-AddedOffRampEdge" id="veh68_10800" to="-479797283#1" type="veh_passenger"/>
    <trip depart="10861.95" departLane="best" from="224737854#2" id="veh69_10800" to="25931028#3" type="veh_passenger"/>
    <trip depart="10864.64" departLane="best" from="25931909" id="veh72_10800" to="481854591#1" type="veh_passenger"/>
    <trip depart="10865.54" departLane="best" from="-625413768#3" id="veh73_10800" to="1039159932#1" type="veh_passenger"/>
    <trip depart="10866.44" departLane="best" from="994962124#2" id="veh74_10800" to="479797239#0" type="veh_passenger"/>
    <trip depart="10868.23" departLane="best" from="-479621745#7" id="veh76_10800" to="1032262905#1" type="veh_passenger"/>
    <trip depart="10869.13" departLane="best" from="1041504065" id="veh77_10800" to="321071861#1" type="veh_passenger"/>
    <trip depart="10870.03" departLane="best" from="1032665742" id="veh78_10800" to="100646260#0" type="veh_passenger"/>
    <trip depart="10870.93" departLane="best" from="-248698668#8" id="veh79_10800" to="479621745#7" type="veh_passenger"/>
    <trip depart="10872.72" departLane="best" from="625413768#2" id="veh81_10800" to="-255416245#0" type="veh_passenger"/>
    <trip depart="10874.52" departLane="best" from="-994875416" id="veh83_10800" to="-479797308" type="veh_passenger"/>
    <trip depart="10875.42" departLane="best" from="742727484#1" id="veh84_10800" to="26234533#0" type="veh_passenger"/>
    <trip depart="10876.31" departLane="best" from="224737852#6" id="veh85_10800" to="538068606-AddedOffRampEdge" type="veh_passenger"/>
    <trip depart="10877.21" departLane="best" from="-320758120" id="veh86_10800" to="156148432#0" type="veh_passenger"/>
    <trip depart="10879.01" departLane="best" from="481854588#3" id="veh88_10800" to="479797313#0" type="veh_passenger"/>
    <trip depart="10880.8" departLane="best" from="156148407#0" id="veh90_10800" to="1041235840#1-AddedOffRampEdge" type="veh_passenger"/>
    <trip depart="10881.7" departLane="best" from="625413783#2" id="veh91_10800" to="1036062887" type="veh_passenger"/>
    <trip depart="10882.6" departLane="best" from="-61163715#2" id="veh92_10800" to="159455874#9" type="veh_passenger"/>
    <trip depart="10883.5" departLane="best" from="159453472#0" id="veh93_10800" to="1036341357#1" type="veh_passenger"/>
    <trip depart="10885.29" departLane="best" from="166563429#6" id="veh95_10800" to="625413766#0" type="veh_passenger"/>
    <trip depart="10887.09" departLane="best" from="996026061#1" id="veh97_10800" to="622873931#7" type="veh_passenger"/>
    <trip depart="10887.99" departLane="best" from="854001000#1" id="veh98_10800" to="742727471" type="veh_passenger"/>
    <trip depart="10889.78" departLane="best" from="235427270" id="veh100_10800" to="100646217#3" type="veh_passenger"/>
    <trip depart="10892.47" departLane="best" from="1036341358#1" id="veh103_10800" to="538068606-AddedOffRampEdge" type="veh_passenger"/>
    <trip depart="10893.37" departLane="best" from="178774217#1" id="veh104_10800" to="156148417" type="veh_passenger"/>
    <trip depart="10895.17" departLane="best" from="25934395#5" id="veh106_10800" to="480283416#1" type="veh_passenger"/>
    <trip depart="10896.07" departLane="best" from="-480250296#0" id="veh107_10800" to="1036360487#6" type="veh_passenger"/>
    <trip depart="10896.96" departLane="best" from="854001000#0" id="veh108_10800" to="320758120" type="veh_passenger"/>
    <trip depart="10897.86" departLane="best" from="25931909" id="veh109_10800" to="490192688#5" type="veh_passenger"/>
    <trip depart="10898.76" departLane="best" from="-234517427#4" id="veh110_10800" to="320758139" type="veh_passenger"/>
    <trip depart="10899.66" departLane="best" from="248698670#0" id="veh111_10800" to="623891500#1" type="veh_passenger"/>
    <trip depart="10900.55" departLane="best" from="-480250299#0" id="veh112_10800" to="774852739#1" type="veh_passenger"/>
    <trip depart="10902.35" departLane="best" from="323563821#1" id="veh114_10800" to="479797313#4" type="veh_passenger"/>
    <trip depart="10905.04" departLane="best" from="323563821#0" id="veh117_10800" to="475316658#1" type="veh_passenger"/>
    <trip depart="10905.94" departLane="best" from="159453449#8" id="veh118_10800" to="320758139" type="veh_passenger"/>
    <trip depart="10906.84" departLane="best" from="256157278#1" id="veh119_10800" to="742727484#3" type="veh_passenger"/>
    <trip depart="10907.74" departLane="best" from="-658095569#2" id="veh120_10800" to="480276562" type="veh_passenger"/>
    <trip depart="10908.63" departLane="best" from="1036060565" id="veh121_10800" to="1042716327" type="veh_passenger"/>
    <trip depart="10909.53" departLane="best" from="479797313#7" id="veh122_10800" to="1038266651" type="veh_passenger"/>
    <trip depart="10910.43" departLane="best" from="1040925852" id="veh123_10800" to="490213894-AddedOffRampEdge" type="veh_passenger"/>
    <trip depart="10911.33" departLane="best" from="-248698670#2" id="veh124_10800" to="166563426#3" type="veh_passenger"/>
    <trip depart="10912.23" departLane="best" from="-255416142#1" id="veh125_10800" to="100646208" type="veh_passenger"/>
    <trip depart="10913.12" departLane="best" from="1036341358#1" id="veh126_10800" to="742727484#0" type="veh_passenger"/>
    <trip depart="10914.02" departLane="best" from="1042693361#1" id="veh127_10800" to="-480282281#0" type="veh_passenger"/>
    <trip depart="10914.92" departLane="best" from="622873931#7" id="veh128_10800" to="480250293#0" type="veh_passenger"/>
    <trip depart="10915.82" departLane="best" from="475316653#6" id="veh129_10800" to="854052897#4" type="veh_passenger"/>
    <trip depart="10916.71" departLane="best" from="479797277#2" id="veh130_10800" to="-100646260#1" type="veh_passenger"/>
    <trip depart="10917.61" departLane="best" from="618364867#1" id="veh131_10800" to="1038110939" type="veh_passenger"/>
    <trip depart="10918.51" departLane="best" from="479797310#0" id="veh132_10800" to="765449926#0" type="veh_passenger"/>
    <trip depart="10920.31" departLane="best" from="-475316645#2" id="veh134_10800" to="25931028#5" type="veh_passenger"/>
    <trip depart="10923" departLane="best" from="479621763#12" id="veh137_10800" to="1036099956#3" type="veh_passenger"/>
    <trip depart="10923.9" departLane="best" from="235427743#0" id="veh138_10800" to="696730624" type="veh_passenger"/>
    <trip depart="10924.8" departLane="best" from="623474397#0" id="veh139_10800" to="-379986688#2" type="veh_passenger"/>
    <trip depart="10925.69" departLane="best" from="159453472#4" id="veh140_10800" to="1036341355" type="veh_passenger"/>
    <trip depart="10926.59" departLane="best" from="-100646242#1" id="veh141_10800" to="491632371#2" type="veh_passenger"/>
    <trip depart="10927.49" departLane="best" from="479621774#2" id="veh142_10800" to="1036099953" type="veh_passenger"/>
    <trip depart="10928.39" departLane="best" from="489606090" id="veh143_10800" to="25931028#4" type="veh_passenger"/>
    <trip depart="10929.28" departLane="best" from="159455874#4" id="veh144_10800" to="-100646264#0" type="veh_passenger"/>
    <trip depart="10930.18" departLane="best" from="-255416153" id="veh145_10800" to="665451330#1" type="veh_passenger"/>
    <trip depart="10931.98" departLane="best" from="622873934#0" id="veh147_10800" to="320758130#1" type="veh_passenger"/>
    <trip depart="10932.88" departLane="best" from="-479816722#1" id="veh148_10800" to="-479797258#5" type="veh_passenger"/>
    <trip depart="10933.77" departLane="best" from="1040260533" id="veh149_10800" to="684128578#2" type="veh_passenger"/>
    <trip depart="10934.67" departLane="best" from="583797089#8" id="veh150_10800" to="625413762#3" type="veh_passenger"/>
    <trip depart="10935.57" departLane="best" from="684128578#0" id="veh151_10800" to="-775380332#4" type="veh_passenger"/>
    <trip depart="10937.36" departLane="best" from="491638583#6" id="veh153_10800" to="665451330#2" type="veh_passenger"/>
    <trip depart="10938.26" departLane="best" from="156148419#1" id="veh154_10800" to="475319371#0" type="veh_passenger"/>
    <trip depart="10940.06" departLane="best" from="625418511" id="veh156_10800" to="854040750" type="veh_passenger"/>
    <trip depart="10943.65" departLane="best" from="61163710#13" id="veh160_10800" to="625413783#2" type="veh_passenger"/>
    <trip depart="10945.44" departLane="best" from="538068340#1" id="veh162_10800" to="-479613101#1" type="veh_passenger"/>
    <trip depart="10947.24" departLane="best" from="100646256#1" id="veh164_10800" to="618371794" type="veh_passenger"/>
    <trip depart="10948.14" departLane="best" from="216060954#1" id="veh165_10800" to="1039133060" type="veh_passenger"/>
    <trip depart="10949.04" departLane="best" from="583797089#7" id="veh166_10800" to="1032987570#1" type="veh_passenger"/>
    <trip depart="10949.93" departLane="best" from="-1042698679" id="veh167_10800" to="-622804129#0" type="veh_passenger"/>
    <trip depart="10950.83" departLane="best" from="1041235840#0" id="veh168_10800" to="625413783#3" type="veh_passenger"/>
    <trip depart="10951.73" departLane="best" from="479751865#1" id="veh169_10800" to="1042728028#1" type="veh_passenger"/>
    <trip depart="10952.63" departLane="best" from="854052892-AddedOffRampEdge" id="veh170_10800" to="255416223#1" type="veh_passenger"/>
    <trip depart="10953.52" departLane="best" from="764267604" id="veh171_10800" to="-479621752#0" type="veh_passenger"/>
    <trip depart="10954.42" departLane="best" from="854001002#1" id="veh172_10800" to="-490165001#1" type="veh_passenger"/>
    <trip depart="10955.32" departLane="best" from="775122579#1" id="veh173_10800" to="1036114082" type="veh_passenger"/>
    <trip depart="10956.22" departLane="best" from="-475316653#0" id="veh174_10800" to="159453447#8" type="veh_passenger"/>
    <trip depart="10957.12" departLane="best" from="481854585" id="veh175_10800" to="1039159937" type="veh_passenger"/>
    <trip depart="10958.91" departLane="best" from="123423117#1" id="veh177_10800" to="320755661#1" type="veh_passenger"/>
    <trip depart="10959.81" departLane="best" from="1036338535" id="veh178_10800" to="480250299#1" type="veh_passenger"/>
    <trip depart="10960.71" departLane="best" from="-100646220#2" id="veh179_10800" to="742727470" type="veh_passenger"/>
    <trip depart="10962.5" departLane="best" from="489606090" id="veh181_10800" to="479797310#7" type="veh_passenger"/>
    <trip depart="10963.4" departLane="best" from="1042449169#1" id="veh182_10800" to="-255416229#2" type="veh_passenger"/>
    <trip depart="10965.2" departLane="best" from="1040882903" id="veh184_10800" to="623138417" type="veh_passenger"/>
    <trip depart="10966.09" departLane="best" from="480284576#1" id="veh185_10800" to="1038324580" type="veh_passenger"/>
    <trip depart="10966.99" departLane="best" from="1040591005" id="veh186_10800" to="145126347" type="veh_passenger"/>
    <trip depart="10967.89" departLane="best" from="156148404#3" id="veh187_10800" to="1036360487#5" type="veh_passenger"/>
    <trip depart="10968.79" departLane="best" from="-479621763#5" id="veh188_10800" to="156148404#2" type="veh_passenger"/>
    <trip depart="10969.69" departLane="best" from="764267605" id="veh189_10800" to="479797318#0" type="veh_passenger"/>
    <trip depart="10971.48" departLane="best" from="1039159935" id="veh191_10800" to="25931028#2" type="veh_passenger"/>
    <trip depart="10972.38" departLane="best" from="-100646217#0" id="veh192_10800" to="1036342983" type="veh_passenger"/>
    <trip depart="10973.28" departLane="best" from="159455874#8" id="veh193_10800" to="320758122#1" type="veh_passenger"/>
    <trip depart="10975.07" departLane="best" from="166563429#4" id="veh195_10800" to="100646217#3" type="veh_passenger"/>
    <trip depart="10975.97" departLane="best" from="224737854#0" id="veh196_10800" to="684135634#2" type="veh_passenger"/>
    <trip depart="10976.87" departLane="best" from="583797089#8" id="veh197_10800" to="-483726628#0" type="veh_passenger"/>
    <trip depart="10978.66" departLane="best" from="479621758#4" id="veh199_10800" to="1041187875" type="veh_passenger"/>
    <trip depart="10980.46" departLane="best" from="479797318#4" id="veh201_10800" to="1032262905#1" type="veh_passenger"/>
    <trip depart="10981.36" departLane="best" from="-623891515#1" id="veh202_10800" to="-159455892#4" type="veh_passenger"/>
    <trip depart="10983.15" departLane="best" from="623474399#3" id="veh204_10800" to="-255416251#2" type="veh_passenger"/>
    <trip depart="10984.05" departLane="best" from="159453447#12" id="veh205_10800" to="479621745#2" type="veh_passenger"/>
    <trip depart="10984.95" departLane="best" from="-622873929#0" id="veh206_10800" to="479816723#0" type="veh_passenger"/>
    <trip depart="10985.85" departLane="best" from="245763347#0" id="veh207_10800" to="1036052086#2" type="veh_passenger"/>
    <trip depart="10986.74" departLane="best" from="479797279" id="veh208_10800" to="-100646248#2" type="veh_passenger"/>
    <trip depart="10988.54" departLane="best" from="-475316645#2" id="veh210_10800" to="156148419#2" type="veh_passenger"/>
    <trip depart="10989.44" departLane="best" from="-483796488#0" id="veh211_10800" to="773876919#3" type="veh_passenger"/>
    <trip depart="10992.13" departLane="best" from="178774219#2" id="veh214_10800" to="61163710#1" type="veh_passenger"/>
    <trip depart="10993.93" departLane="best" from="323563821#2" id="veh216_10800" to="773159596#1" type="veh_passenger"/>
    <trip depart="10994.82" departLane="best" from="665453544" id="veh217_10800" to="47070283#3" type="veh_passenger"/>
    <trip depart="10995.72" departLane="best" from="480284575" id="veh218_10800" to="235424958#4" type="veh_passenger"/>
    <trip depart="10996.62" departLane="best" from="622873931#0" id="veh219_10800" to="25931028#2" type="veh_passenger"/>
    <trip depart="10997.52" departLane="best" from="665453553" id="veh220_10800" to="489629072#3" type="veh_passenger"/>
    <trip depart="10999.31" departLane="best" from="1036079534" id="veh222_10800" to="479621758#3" type="veh_passenger"/>
    <trip depart="11002.01" departLane="best" from="-255416209#0" id="veh225_10800" to="1036342983" type="veh_passenger"/>
    <trip depart="11003.8" departLane="best" from="25931909" id="veh227_10800" to="-479797345#1" type="veh_passenger"/>
    <trip depart="11006.5" departLane="best" from="156148419#4" id="veh230_10800" to="256157279" type="veh_passenger"/>
    <trip depart="11009.19" departLane="best" from="321073225#1" id="veh233_10800" to="479816717#0" type="veh_passenger"/>
    <trip depart="11010.09" departLane="best" from="625397297" id="veh234_10800" to="491628727#0" type="veh_passenger"/>
    <trip depart="11010.98" departLane="best" from="1042716324" id="veh235_10800" to="-100646252#0" type="veh_passenger"/>
    <trip depart="11011.88" departLane="best" from="1041544550#0" id="veh236_10800" to="490216931#1" type="veh_passenger"/>
    <trip depart="11012.78" departLane="best" from="623891513" id="veh237_10800" to="773159597#3" type="veh_passenger"/>
    <trip depart="11013.68" departLane="best" from="159453449#7" id="veh238_10800" to="490192688#3-AddedOnRampEdge" type="veh_passenger"/>
    <trip depart="11014.58" departLane="best" from="25931950-AddedOffRampEdge" id="veh239_10800" to="321073948" type="veh_passenger"/>
    <trip depart="11016.37" departLane="best" from="1041504064" id="veh241_10800" to="479797321" type="veh_passenger"/>
    <trip depart="11018.17" departLane="best" from="224737849#3" id="veh243_10800" to="-479797258#6" type="veh_passenger"/>
    <trip depart="11019.96" departLane="best" from="156148397#3" id="veh245_10800" to="25934381#0" type="veh_passenger"/>
    <trip depart="11020.86" departLane="best" from="-156148407#1" id="veh246_10800" to="479751358#0" type="veh_passenger"/>
    <trip depart="11021.76" departLane="best" from="-479797279" id="veh247_10800" to="166563429#5" type="veh_passenger"/>
    <trip depart="11022.66" departLane="best" from="-216060954#0" id="veh248_10800" to="1042449170" type="veh_passenger"/>
    <trip depart="11023.55" departLane="best" from="490718877#0" id="veh249_10800" to="1042449170" type="veh_passenger"/>
    <trip depart="11025.35" departLane="best" from="1036313338" id="veh251_10800" to="-25934385#0" type="veh_passenger"/>
    <trip depart="11026.25" departLane="best" from="-1039220886" id="veh252_10800" to="255416245#1" type="veh_passenger"/>
    <trip depart="11027.15" departLane="best" from="479797258#5" id="veh253_10800" to="538068339#5" type="veh_passenger"/>
    <trip depart="11028.04" departLane="best" from="479797271" id="veh254_10800" to="490216934#0" type="veh_passenger"/>
    <trip depart="11028.94" departLane="best" from="773159597#1" id="veh255_10800" to="-623891512" type="veh_passenger"/>
    <trip depart="11030.74" departLane="best" from="-479621763#11" id="veh257_10800" to="479797310#2" type="veh_passenger"/>
    <trip depart="11031.63" departLane="best" from="267535712" id="veh258_10800" to="100646248#1" type="veh_passenger"/>
    <trip depart="11032.53" departLane="best" from="480250287#2" id="veh259_10800" to="491628727#1" type="veh_passenger"/>
    <trip depart="11033.43" departLane="best" from="-480284570" id="veh260_10800" to="379986688#5" type="veh_passenger"/>
    <trip depart="11034.33" departLane="best" from="490165001#0" id="veh261_10800" to="-479621751#0" type="veh_passenger"/>
    <trip depart="11036.12" departLane="best" from="-475316652#3" id="veh263_10800" to="-159457890#2" type="veh_passenger"/>
    <trip depart="11037.02" departLane="best" from="1040882902#0" id="veh264_10800" to="479797318#0" type="veh_passenger"/>
    <trip depart="11037.92" departLane="best" from="774852739#0" id="veh265_10800" to="1042716327" type="veh_passenger"/>
    <trip depart="11039.71" departLane="best" from="479812143#3" id="veh267_10800" to="479613108#1" type="veh_passenger"/>
    <trip depart="11041.51" departLane="best" from="623891500#1" id="veh269_10800" to="321073251" type="veh_passenger"/>
    <trip depart="11042.41" departLane="best" from="491638590#0" id="veh270_10800" to="1041521601" type="veh_passenger"/>
    <trip depart="11043.31" departLane="best" from="159455874#5" id="veh271_10800" to="1042334799" type="veh_passenger"/>
    <trip depart="11044.2" departLane="best" from="248698674#2" id="veh272_10800" to="1041286369" type="veh_passenger"/>
    <trip depart="11046" departLane="best" from="-475316645#0" id="veh274_10800" to="774852739#1" type="veh_passenger"/>
    <trip depart="11046.9" departLane="best" from="479621763#6" id="veh275_10800" to="622804124#1" type="veh_passenger"/>
    <trip depart="11048.69" departLane="best" from="483726628#1" id="veh277_10800" to="775380332#4" type="veh_passenger"/>
    <trip depart="11049.59" departLane="best" from="1036341364#0" id="veh278_10800" to="61163785#3" type="veh_passenger"/>
    <trip depart="11050.49" departLane="best" from="25931907" id="veh279_10800" to="216060954#3" type="veh_passenger"/>
    <trip depart="11051.39" departLane="best" from="159455892#3" id="veh280_10800" to="481854596#2" type="veh_passenger"/>
    <trip depart="11052.28" departLane="best" from="1036341362#1" id="veh281_10800" to="623474399#2" type="veh_passenger"/>
    <trip depart="11053.18" departLane="best" from="622873931#0" id="veh282_10800" to="-320755658#2" type="veh_passenger"/>
    <trip depart="11054.08" departLane="best" from="665451328#4" id="veh283_10800" to="1036052086#2" type="veh_passenger"/>
    <trip depart="11054.98" departLane="best" from="216065940#2" id="veh284_10800" to="390383583#0" type="veh_passenger"/>
    <trip depart="11057.67" departLane="best" from="-856908280" id="veh287_10800" to="584750383#1" type="veh_passenger"/>
    <trip depart="11059.47" departLane="best" from="480250295#0" id="veh289_10800" to="1036341355" type="veh_passenger"/>
    <trip depart="11061.26" departLane="best" from="-256157283#0" id="veh291_10800" to="480284575" type="veh_passenger"/>
    <trip depart="11062.16" departLane="best" from="235427743#0" id="veh292_10800" to="491628725#0" type="veh_passenger"/>
    <trip depart="11063.06" departLane="best" from="479812143#3" id="veh293_10800" to="479751374#1" type="veh_passenger"/>
    <trip depart="11063.96" departLane="best" from="235436489#0" id="veh294_10800" to="583797089#2" type="veh_passenger"/>
    <trip depart="11064.85" departLane="best" from="-25934395#4" id="veh295_10800" to="100646269#0" type="veh_passenger"/>
    <trip depart="11065.75" departLane="best" from="479812147#0" id="veh296_10800" to="1039133060" type="veh_passenger"/>
    <trip depart="11067.55" departLane="best" from="25931028#4" id="veh298_10800" to="156148419#3" type="veh_passenger"/>
    <trip depart="11068.44" departLane="best" from="489924065" id="veh299_10800" to="1040929341" type="veh_passenger"/>
    <trip depart="11069.34" departLane="best" from="480250296#2" id="veh300_10800" to="1036341350#3" type="veh_passenger"/>
    <trip depart="11070.24" departLane="best" from="1036114082" id="veh301_10800" to="-479621763#9" type="veh_passenger"/>
    <trip depart="11071.14" departLane="best" from="-61163785#3" id="veh302_10800" to="-479621763#5" type="veh_passenger"/>
    <trip depart="11072.04" departLane="best" from="25931033" id="veh303_10800" to="491628725#3" type="veh_passenger"/>
    <trip depart="11072.93" departLane="best" from="-491638583#3" id="veh304_10800" to="100646242#1" type="veh_passenger"/>
    <trip depart="11075.63" departLane="best" from="1036360487#6" id="veh307_10800" to="-475316653#0" type="veh_passenger"/>
    <trip depart="11076.52" departLane="best" from="-622805764#1" id="veh308_10800" to="1032987570#1" type="veh_passenger"/>
    <trip depart="11079.22" departLane="best" from="854040751" id="veh311_10800" to="25931028#5" type="veh_passenger"/>
    <trip depart="11080.12" departLane="best" from="479816723#2" id="veh312_10800" to="-479797258#1" type="veh_passenger"/>
    <trip depart="11081.91" departLane="best" from="658130902" id="veh314_10800" to="26234533#2" type="veh_passenger"/>
    <trip depart="11082.81" departLane="best" from="224737850#2" id="veh315_10800" to="159453472#0" type="veh_passenger"/>
    <trip depart="11083.71" departLane="best" from="-490718877#2" id="veh316_10800" to="-248698662" type="veh_passenger"/>
    <trip depart="11085.5" departLane="best" from="618371797" id="veh318_10800" to="1046628053" type="veh_passenger"/>
    <trip depart="11086.4" departLane="best" from="-255416142#4" id="veh319_10800" to="479621745#1" type="veh_passenger"/>
    <trip depart="11088.2" departLane="best" from="267535712" id="veh321_10800" to="1039133060" type="veh_passenger"/>
    <trip depart="11089.09" departLane="best" from="994962121#3" id="veh322_10800" to="-479621763#11" type="veh_passenger"/>
    <trip depart="11089.99" departLane="best" from="491628725#1" id="veh323_10800" to="379986688#1" type="veh_passenger"/>
    <trip depart="11091.79" departLane="best" from="256157278#0" id="veh325_10800" to="159455875#2" type="veh_passenger"/>
    <trip depart="11092.69" departLane="best" from="166563429#5" id="veh326_10800" to="625413762#1" type="veh_passenger"/>
    <trip depart="11093.58" departLane="best" from="901285521" id="veh327_10800" to="1039133060" type="veh_passenger"/>
    <trip depart="11094.48" departLane="best" from="479621743#1" id="veh328_10800" to="379986768" type="veh_passenger"/>
    <trip depart="11095.38" departLane="best" from="489606084-AddedOnRampEdge" id="veh329_10800" to="765467137" type="veh_passenger"/>
    <trip depart="11096.28" departLane="best" from="-665451328#7" id="veh330_10800" to="-775599627#0" type="veh_passenger"/>
    <trip depart="11097.17" departLane="best" from="479797300#0" id="veh331_10800" to="-480282280" type="veh_passenger"/>
    <trip depart="11098.07" departLane="best" from="-480475790#0" id="veh332_10800" to="-256157278#0" type="veh_passenger"/>
    <trip depart="11098.97" departLane="best" from="-100646234" id="veh333_10800" to="159455875#2" type="veh_passenger"/>