<routes>
    <vType id="veh_passenger" vClass="passenger"/>
    <trip depart="14400" departLane="best" from="479751369#4" id="veh0_14400" to="-159455892#6" type="veh_passenger"/>
    <trip depart="14400.9" departLane="best" from="1036346145" id="veh1_14400" to="100646295#1" type="veh_passenger"/>
    <trip depart="14401.8" departLane="best" from="486825027#0" id="veh2_14400" to="479797313#7" type="veh_passenger"/>
    <trip depart="14402.69" departLane="best" from="665453544" id="veh3_14400" to="-320755659#0" type="veh_passenger"/>
    <trip depart="14404.49" departLane="best" from="100646220#1" id="veh5_14400" to="235424958#4" type="veh_passenger"/>
    <trip depart="14405.39" departLane="best" from="-155033028#1" id="veh6_14400" to="-623891502#0" type="veh_passenger"/>
    <trip depart="14406.28" departLane="best" from="479797258#4" id="veh7_14400" to="25931028#0" type="veh_passenger"/>
    <trip depart="14407.18" departLane="best" from="100646245#3" id="veh8_14400" to="321071861#2" type="veh_passenger"/>
    <trip depart="14408.98" departLane="best" from="1041521602" id="veh10_14400" to="-480276564" type="veh_passenger"/>
    <trip depart="14409.88" departLane="best" from="773876919#5" id="veh11_14400" to="1041187875-AddedOnRampEdge" type="veh_passenger"/>
    <trip depart="14411.67" departLane="best" from="623474397#3" id="veh13_14400" to="321073948" type="veh_passenger"/>
    <trip depart="14412.57" departLane="best" from="61163715#4" id="veh14_14400" to="481854591#1" type="veh_passenger"/>
    <trip depart="14413.47" departLane="best" from="25931033" id="veh15_14400" to="854001005#0" type="veh_passenger"/>
    <trip depart="14415.26" departLane="best" from="622809059#0" id="veh17_14400" to="475316653#4" type="veh_passenger"/>
    <trip depart="14416.16" departLane="best" from="625413783#2" id="veh18_14400" to="320755665" type="veh_passenger"/>
    <trip depart="14419.75" departLane="best" from="-379986746#0" id="veh22_14400" to="1036341357#0" type="veh_passenger"/>
    <trip depart="14421.55" departLane="best" from="1042693362#0" id="veh24_14400" to="-775380332#0" type="veh_passenger"/>
    <trip depart="14422.45" departLane="best" from="1036341360#1" id="veh25_14400" to="743386900" type="veh_passenger"/>
    <trip depart="14423.34" departLane="best" from="479797253#1" id="veh26_14400" to="379986751" type="veh_passenger"/>
    <trip depart="14425.14" departLane="best" from="-480252897#2" id="veh28_14400" to="1042449170" type="veh_passenger"/>
    <trip depart="14426.04" departLane="best" from="901285519#0" id="veh29_14400" to="479621763#4" type="veh_passenger"/>
    <trip depart="14427.83" departLane="best" from="623128861" id="veh31_14400" to="491638585" type="veh_passenger"/>
    <trip depart="14430.53" departLane="best" from="-775380332#5" id="veh34_14400" to="765449928" type="veh_passenger"/>
    <trip depart="14432.32" departLane="best" from="479797277#5" id="veh36_14400" to="1042716326" type="veh_passenger"/>
    <trip depart="14433.22" departLane="best" from="742718528#2" id="veh37_14400" to="166563426#4" type="veh_passenger"/>
    <trip depart="14434.12" departLane="best" from="1036341358#0" id="veh38_14400" to="1036060565" type="veh_passenger"/>
    <trip depart="14435.01" departLane="best" from="26234656#0" id="veh39_14400" to="1036099955" type="veh_passenger"/>
    <trip depart="14435.91" departLane="best" from="321073225#2" id="veh40_14400" to="684128578#0" type="veh_passenger"/>
    <trip depart="14436.81" departLane="best" from="156148402#2" id="veh41_14400" to="100646256#0" type="veh_passenger"/>
    <trip depart="14437.71" departLane="best" from="994962124#6" id="veh42_14400" to="235424974#1" type="veh_passenger"/>
    <trip depart="14439.5" departLane="best" from="-475316653#5" id="veh44_14400" to="479613108#2" type="veh_passenger"/>
    <trip depart="14440.4" departLane="best" from="583797089#1" id="veh45_14400" to="156148413#0" type="veh_passenger"/>
    <trip depart="14441.3" departLane="best" from="-248698662" id="veh46_14400" to="1042676039" type="veh_passenger"/>
    <trip depart="14442.2" departLane="best" from="994962124#3" id="veh47_14400" to="248698674#2" type="veh_passenger"/>
    <trip depart="14443.09" departLane="best" from="854001005#0" id="veh48_14400" to="625413762#3" type="veh_passenger"/>
    <trip depart="14443.99" departLane="best" from="-1036047409#0" id="veh49_14400" to="480284576#2" type="veh_passenger"/>
    <trip depart="14444.89" departLane="best" from="479797341#1-AddedOnRampEdge" id="veh50_14400" to="255416224#2" type="veh_passenger"/>
    <trip depart="14445.79" departLane="best" from="1036341360#0" id="veh51_14400" to="479621763#7" type="veh_passenger"/>
    <trip depart="14446.69" departLane="best" from="-475319370" id="veh52_14400" to="159453447#8" type="veh_passenger"/>
    <trip depart="14447.58" departLane="best" from="178774212#0" id="veh53_14400" to="773159597#3" type="veh_passenger"/>
    <trip depart="14449.38" departLane="best" from="248698668#12" id="veh55_14400" to="-490165001#1" type="veh_passenger"/>
    <trip depart="14451.17" departLane="best" from="1039159932#1" id="veh57_14400" to="479621763#11" type="veh_passenger"/>
    <trip depart="14452.97" departLane="best" from="491462355" id="veh59_14400" to="255416245#1" type="veh_passenger"/>
    <trip depart="14453.87" departLane="best" from="491638583#0" id="veh60_14400" to="255416142#2" type="veh_passenger"/>
    <trip depart="14454.77" departLane="best" from="-100646217#1" id="veh61_14400" to="1040911960" type="veh_passenger"/>
    <trip depart="14459.26" departLane="best" from="-256157283#0" id="veh66_14400" to="216065938#0" type="veh_passenger"/>
    <trip depart="14460.15" departLane="best" from="-248698668#10" id="veh67_14400" to="491628725#1-AddedOffRampEdge" type="veh_passenger"/>
    <trip depart="14461.05" departLane="best" from="491628725#1-AddedOffRampEdge" id="veh68_14400" to="-479797283#1" type="veh_passenger"/>
    <trip depart="14461.95" departLane="best" from="224737854#2" id="veh69_14400" to="25931028#3" type="veh_passenger"/>
    <trip depart="14464.64" departLane="best" from="25931909" id="veh72_14400" to="481854591#1" type="veh_passenger"/>
    <trip depart="14465.54" departLane="best" from="-625413768#3" id="veh73_14400" to="1039159932#1" type="veh_passenger"/>
    <trip depart="14466.44" departLane="best" from="994962124#2" id="veh74_14400" to="479797239#0" type="veh_passenger"/>
    <trip depart="14468.23" departLane="best" from="-479621745#7" id="veh76_14400" to="1032262905#1" type="veh_passenger"/>
    <trip depart="14469.13" departLane="best" from="1041504065" id="veh77_14400" to="321071861#1" type="veh_passenger"/>
    <trip depart="14470.03" departLane="best" from="1032665742" id="veh78_14400" to="100646260#0" type="veh_passenger"/>
    <trip depart="14470.93" departLane="best" from="-248698668#8" id="veh79_14400" to="479621745#7" type="veh_passenger"/>
    <trip depart="14472.72" departLane="best" from="625413768#2" id="veh81_14400" to="-255416245#0" type="veh_passenger"/>
    <trip depart="14474.52" departLane="best" from="-994875416" id="veh83_14400" to="-479797308" type="veh_passenger"/>
    <trip depart="14475.42" departLane="best" from="742727484#1" id="veh84_14400" to="26234533#0" type="veh_passenger"/>
    <trip depart="14476.31" departLane="best" from="224737852#6" id="veh85_14400" to="538068606-AddedOffRampEdge" type="veh_passenger"/>
    <trip depart="14477.21" departLane="best" from="-320758120" id="veh86_14400" to="156148432#0" type="veh_passenger"/>
    <trip depart="14479.01" departLane="best" from="481854588#3" id="veh88_14400" to="479797313#0" type="veh_passenger"/>
    <trip depart="14480.8" departLane="best" from="156148407#0" id="veh90_14400" to="1041235840#1-AddedOffRampEdge" type="veh_passenger"/>
    <trip depart="14481.7" departLane="best" from="625413783#2" id="veh91_14400" to="1036062887" type="veh_passenger"/>
    <trip depart="14482.6" departLane="best" from="-61163715#2" id="veh92_14400" to="159455874#9" type="veh_passenger"/>
    <trip depart="14483.5" departLane="best" from="159453472#0" id="veh93_14400" to="1036341357#1" type="veh_passenger"/>
    <trip depart="14485.29" departLane="best" from="166563429#6" id="veh95_14400" to="625413766#0" type="veh_passenger"/>
    <trip depart="14487.09" departLane="best" from="996026061#1" id="veh97_14400" to="622873931#7" type="veh_passenger"/>
    <trip depart="14487.99" departLane="best" from="854001000#1" id="veh98_14400" to="742727471" type="veh_passenger"/>
    <trip depart="14489.78" departLane="best" from="235427270" id="veh100_14400" to="100646217#3" type="veh_passenger"/>
    <trip depart="14492.47" departLane="best" from="1036341358#1" id="veh103_14400" to="538068606-AddedOffRampEdge" type="veh_passenger"/>
    <trip depart="14493.37" departLane="best" from="178774217#1" id="veh104_14400" to="156148417" type="veh_passenger"/>
    <trip depart="14495.17" departLane="best" from="25934395#5" id="veh106_14400" to="480283416#1" type="veh_passenger"/>
    <trip depart="14496.07" departLane="best" from="-480250296#0" id="veh107_14400" to="1036360487#6" type="veh_passenger"/>
    <trip depart="14496.96" departLane="best" from="854001000#0" id="veh108_14400" to="320758120" type="veh_passenger"/>
    <trip depart="14497.86" departLane="best" from="25931909" id="veh109_14400" to="490192688#5" type="veh_passenger"/>
    <trip depart="14498.76" departLane="best" from="-234517427#4" id="veh110_14400" to="320758139" type="veh_passenger"/>
    <trip depart="14499.66" departLane="best" from="248698670#0" id="veh111_14400" to="623891500#1" type="veh_passenger"/>
    <trip depart="14500.55" departLane="best" from="-480250299#0" id="veh112_14400" to="774852739#1" type="veh_passenger"/>
    <trip depart="14502.35" departLane="best" from="323563821#1" id="veh114_14400" to="479797313#4" type="veh_passenger"/>
    <trip depart="14505.04" departLane="best" from="323563821#0" id="veh117_14400" to="475316658#1" type="veh_passenger"/>
    <trip depart="14505.94" departLane="best" from="159453449#8" id="veh118_14400" to="320758139" type="veh_passenger"/>
    <trip depart="14506.84" departLane="best" from="256157278#1" id="veh119_14400" to="742727484#3" type="veh_passenger"/>
    <trip depart="14507.74" departLane="best" from="-658095569#2" id="veh120_14400" to="480276562" type="veh_passenger"/>
    <trip depart="14508.63" departLane="best" from="1036060565" id="veh121_14400" to="1042716327" type="veh_passenger"/>
    <trip depart="14509.53" departLane="best" from="479797313#7" id="veh122_14400" to="1038266651" type="veh_passenger"/>
    <trip depart="14510.43" departLane="best" from="1040925852" id="veh123_14400" to="490213894-AddedOffRampEdge" type="veh_passenger"/>
    <trip depart="14511.33" departLane="best" from="-248698670#2" id="veh124_14400" to="166563426#3" type="veh_passenger"/>
    <trip depart="14512.23" departLane="best" from="-255416142#1" id="veh125_14400" to="100646208" type="veh_passenger"/>
    <trip depart="14513.12" departLane="best" from="1036341358#1" id="veh126_14400" to="742727484#0" type="veh_passenger"/>
    <trip depart="14514.02" departLane="best" from="1042693361#1" id="veh127_14400" to="-480282281#0" type="veh_passenger"/>
    <trip depart="14514.92" departLane="best" from="622873931#7" id="veh128_14400" to="480250293#0" type="veh_passenger"/>
    <trip depart="14515.82" departLane="best" from="475316653#6" id="veh129_14400" to="854052897#4" type="veh_passenger"/>
    <trip depart="14516.71" departLane="best" from="479797277#2" id="veh130_14400" to="-100646260#1" type="veh_passenger"/>
    <trip depart="14517.61" departLane="best" from="618364867#1" id="veh131_14400" to="1038110939" type="veh_passenger"/>
    <trip depart="14518.51" departLane="best" from="479797310#0" id="veh132_14400" to="765449926#0" type="veh_passenger"/>
    <trip depart="14520.31" departLane="best" from="-475316645#2" id="veh134_14400" to="25931028#5" type="veh_passenger"/>
    <trip depart="14523" departLane="best" from="479621763#12" id="veh137_14400" to="1036099956#3" type="veh_passenger"/>
    <trip depart="14523.9" departLane="best" from="235427743#0" id="veh138_14400" to="696730624" type="veh_passenger"/>
    <trip depart="14524.8" departLane="best" from="623474397#0" id="veh139_14400" to="-379986688#2" type="veh_passenger"/>
    <trip depart="14525.69" departLane="best" from="159453472#4" id="veh140_14400" to="1036341355" type="veh_passenger"/>
    <trip depart="14526.59" departLane="best" from="-100646242#1" id="veh141_14400" to="491632371#2" type="veh_passenger"/>
    <trip depart="14527.49" departLane="best" from="479621774#2" id="veh142_14400" to="1036099953" type="veh_passenger"/>
    <trip depart="14528.39" departLane="best" from="489606090" id="veh143_14400" to="25931028#4" type="veh_passenger"/>
    <trip depart="14529.28" departLane="best" from="159455874#4" id="veh144_14400" to="-100646264#0" type="veh_passenger"/>
    <trip depart="14530.18" departLane="best" from="-255416153" id="veh145_14400" to="665451330#1" type="veh_passenger"/>
    <trip depart="14531.98" departLane="best" from="622873934#0" id="veh147_14400" to="320758130#1" type="veh_passenger"/>
    <trip depart="14532.88" departLane="best" from="-479816722#1" id="veh148_14400" to="-479797258#5" type="veh_passenger"/>
    <trip depart="14533.77" departLane="best" from="1040260533" id="veh149_14400" to="684128578#2" type="veh_passenger"/>
    <trip depart="14534.67" departLane="best" from="583797089#8" id="veh150_14400" to="625413762#3" type="veh_passenger"/>
    <trip depart="14535.57" departLane="best" from="684128578#0" id="veh151_14400" to="-775380332#4" type="veh_passenger"/>
    <trip depart="14537.36" departLane="best" from="491638583#6" id="veh153_14400" to="665451330#2" type="veh_passenger"/>
    <trip depart="14538.26" departLane="best" from="156148419#1" id="veh154_14400" to="475319371#0" type="veh_passenger"/>
    <trip depart="14540.06" departLane="best" from="625418511" id="veh156_14400" to="854040750" type="veh_passenger"/>
    <trip depart="14543.65" departLane="best" from="61163710#13" id="veh160_14400" to="625413783#2" type="veh_passenger"/>
    <trip depart="14545.44" departLane="best" from="538068340#1" id="veh162_14400" to="-479613101#1" type="veh_passenger"/>
    <trip depart="14547.24" departLane="best" from="100646256#1" id="veh164_14400" to="618371794" type="veh_passenger"/>
    <trip depart="14548.14" departLane="best" from="216060954#1" id="veh165_14400" to="1039133060" type="veh_passenger"/>
    <trip depart="14549.04" departLane="best" from="583797089#7" id="veh166_14400" to="1032987570#1" type="veh_passenger"/>
    <trip depart="14549.93" departLane="best" from="-1042698679" id="veh167_14400" to="-622804129#0" type="veh_passenger"/>
    <trip depart="14550.83" departLane="best" from="1041235840#0" id="veh168_14400" to="625413783#3" type="veh_passenger"/>
    <trip depart="14551.73" departLane="best" from="479751865#1" id="veh169_14400" to="1042728028#1" type="veh_passenger"/>
    <trip depart="14552.63" departLane="best" from="854052892-AddedOffRampEdge" id="veh170_14400" to="255416223#1" type="veh_passenger"/>
    <trip depart="14553.52" departLane="best" from="764267604" id="veh171_14400" to="-479621752#0" type="veh_passenger"/>
    <trip depart="14554.42" departLane="best" from="854001002#1" id="veh172_14400" to="-490165001#1" type="veh_passenger"/>
    <trip depart="14555.32" departLane="best" from="775122579#1" id="veh173_14400" to="1036114082" type="veh_passenger"/>
    <trip depart="14556.22" departLane="best" from="-475316653#0" id="veh174_14400" to="159453447#8" type="veh_passenger"/>
    <trip depart="14557.12" departLane="best" from="481854585" id="veh175_14400" to="1039159937" type="veh_passenger"/>
    <trip depart="14558.91" departLane="best" from="123423117#1" id="veh177_14400" to="320755661#1" type="veh_passenger"/>
    <trip depart="14559.81" departLane="best" from="1036338535" id="veh178_14400" to="480250299#1" type="veh_passenger"/>
    <trip depart="14560.71" departLane="best" from="-100646220#2" id="veh179_14400" to="742727470" type="veh_passenger"/>
    <trip depart="14562.5" departLane="best" from="489606090" id="veh181_14400" to="479797310#7" type="veh_passenger"/>
    <trip depart="14563.4" departLane="best" from="1042449169#1" id="veh182_14400" to="-255416229#2" type="veh_passenger"/>
    <trip depart="14565.2" departLane="best" from="1040882903" id="veh184_14400" to="623138417" type="veh_passenger"/>
    <trip depart="14566.09" departLane="best" from="480284576#1" id="veh185_14400" to="1038324580" type="veh_passenger"/>
    <trip depart="14566.99" departLane="best" from="1040591005" id="veh186_14400" to="145126347" type="veh_passenger"/>
    <trip depart="14567.89" departLane="best" from="156148404#3" id="veh187_14400" to="1036360487#5" type="veh_passenger"/>
    <trip depart="14568.79" departLane="best" from="-479621763#5" id="veh188_14400" to="156148404#2" type="veh_passenger"/>
    <trip depart="14569.69" departLane="best" from="764267605" id="veh189_14400" to="479797318#0" type="veh_passenger"/>
    <trip depart="14571.48" departLane="best" from="1039159935" id="veh191_14400" to="25931028#2" type="veh_passenger"/>
    <trip depart="14572.38" departLane="best" from="-100646217#0" id="veh192_14400" to="1036342983" type="veh_passenger"/>
    <trip depart="14573.28" departLane="best" from="159455874#8" id="veh193_14400" to="320758122#1" type="veh_passenger"/>
    <trip depart="14575.07" departLane="best" from="166563429#4" id="veh195_14400" to="100646217#3" type="veh_passenger"/>
    <trip depart="14575.97" departLane="best" from="224737854#0" id="veh196_14400" to="684135634#2" type="veh_passenger"/>
    <trip depart="14576.87" departLane="best" from="583797089#8" id="veh197_14400" to="-483726628#0" type="veh_passenger"/>
    <trip depart="14578.66" departLane="best" from="479621758#4" id="veh199_14400" to="1041187875" type="veh_passenger"/>
    <trip depart="14580.46" departLane="best" from="479797318#4" id="veh201_14400" to="1032262905#1" type="veh_passenger"/>
    <trip depart="14581.36" departLane="best" from="-623891515#1" id="veh202_14400" to="-159455892#4" type="veh_passenger"/>
    <trip depart="14583.15" departLane="best" from="623474399#3" id="veh204_14400" to="-255416251#2" type="veh_passenger"/>
    <trip depart="14584.05" departLane="best" from="159453447#12" id="veh205_14400" to="479621745#2" type="veh_passenger"/>
    <trip depart="14584.95" departLane="best" from="-622873929#0" id="veh206_14400" to="479816723#0" type="veh_passenger"/>
    <trip depart="14585.85" departLane="best" from="245763347#0" id="veh207_14400" to="1036052086#2" type="veh_passenger"/>
    <trip depart="14586.74" departLane="best" from="479797279" id="veh208_14400" to="-100646248#2" type="veh_passenger"/>
    <trip depart="14588.54" departLane="best" from="-475316645#2" id="veh210_14400" to="156148419#2" type="veh_passenger"/>
    <trip depart="14589.44" departLane="best" from="-483796488#0" id="veh211_14400" to="773876919#3" type="veh_passenger"/>
    <trip depart="14592.13" departLane="best" from="178774219#2" id="veh214_14400" to="61163710#1" type="veh_passenger"/>
    <trip depart="14593.93" departLane="best" from="323563821#2" id="veh216_14400" to="773159596#1" type="veh_passenger"/>
    <trip depart="14594.82" departLane="best" from="665453544" id="veh217_14400" to="47070283#3" type="veh_passenger"/>
    <trip depart="14595.72" departLane="best" from="480284575" id="veh218_14400" to="235424958#4" type="veh_passenger"/>
    <trip depart="14596.62" departLane="best" from="622873931#0" id="veh219_14400" to="25931028#2" type="veh_passenger"/>
    <trip depart="14597.52" departLane="best" from="665453553" id="veh220_14400" to="489629072#3" type="veh_passenger"/>
    <trip depart="14599.31" departLane="best" from="1036079534" id="veh222_14400" to="479621758#3" type="veh_passenger"/>
    <trip depart="14602.01" departLane="best" from="-255416209#0" id="veh225_14400" to="1036342983" type="veh_passenger"/>
    <trip depart="14603.8" departLane="best" from="25931909" id="veh227_14400" to="-479797345#1" type="veh_passenger"/>
    <trip depart="14606.5" departLane="best" from="156148419#4" id="veh230_14400" to="256157279" type="veh_passenger"/>
    <trip depart="14609.19" departLane="best" from="321073225#1" id="veh233_14400" to="479816717#0" type="veh_passenger"/>
    <trip depart="14610.09" departLane="best" from="625397297" id="veh234_14400" to="491628727#0" type="veh_passenger"/>
    <trip depart="14610.98" departLane="best" from="1042716324" id="veh235_14400" to="-100646252#0" type="veh_passenger"/>
    <trip depart="14611.88" departLane="best" from="1041544550#0" id="veh236_14400" to="490216931#1" type="veh_passenger"/>
    <trip depart="14612.78" departLane="best" from="623891513" id="veh237_14400" to="773159597#3" type="veh_passenger"/>
    <trip depart="14613.68" departLane="best" from="159453449#7" id="veh238_14400" to="490192688#3-AddedOnRampEdge" type="veh_passenger"/>
    <trip depart="14614.58" departLane="best" from="25931950-AddedOffRampEdge" id="veh239_14400" to="321073948" type="veh_passenger"/>
    <trip depart="14616.37" departLane="best" from="1041504064" id="veh241_14400" to="479797321" type="veh_passenger"/>
    <trip depart="14618.17" departLane="best" from="224737849#3" id="veh243_14400" to="-479797258#6" type="veh_passenger"/>
    <trip depart="14619.96" departLane="best" from="156148397#3" id="veh245_14400" to="25934381#0" type="veh_passenger"/>
    <trip depart="14620.86" departLane="best" from="-156148407#1" id="veh246_14400" to="479751358#0" type="veh_passenger"/>
    <trip depart="14621.76" departLane="best" from="-479797279" id="veh247_14400" to="166563429#5" type="veh_passenger"/>
    <trip depart="14622.66" departLane="best" from="-216060954#0" id="veh248_14400" to="1042449170" type="veh_passenger"/>
    <trip depart="14623.55" departLane="best" from="490718877#0" id="veh249_14400" to="1042449170" type="veh_passenger"/>
    <trip depart="14625.35" departLane="best" from="1036313338" id="veh251_14400" to="-25934385#0" type="veh_passenger"/>
    <trip depart="14626.25" departLane="best" from="-1039220886" id="veh252_14400" to="255416245#1" type="veh_passenger"/>
    <trip depart="14627.15" departLane="best" from="479797258#5" id="veh253_14400" to="538068339#5" type="veh_passenger"/>
    <trip depart="14628.04" departLane="best" from="479797271" id="veh254_14400" to="490216934#0" type="veh_passenger"/>
    <trip depart="14628.94" departLane="best" from="773159597#1" id="veh255_14400" to="-623891512" type="veh_passenger"/>
    <trip depart="14630.74" departLane="best" from="-479621763#11" id="veh257_14400" to="479797310#2" type="veh_passenger"/>
    <trip depart="14631.63" departLane="best" from="267535712" id="veh258_14400" to="100646248#1" type="veh_passenger"/>
    <trip depart="14632.53" departLane="best" from="480250287#2" id="veh259_14400" to="491628727#1" type="veh_passenger"/>
    <trip depart="14633.43" departLane="best" from="-480284570" id="veh260_14400" to="379986688#5" type="veh_passenger"/>
    <trip depart="14634.33" departLane="best" from="490165001#0" id="veh261_14400" to="-479621751#0" type="veh_passenger"/>
    <trip depart="14636.12" departLane="best" from="-475316652#3" id="veh263_14400" to="-159457890#2" type="veh_passenger"/>
    <trip depart="14637.02" departLane="best" from="1040882902#0" id="veh264_14400" to="479797318#0" type="veh_passenger"/>
    <trip depart="14637.92" departLane="best" from="774852739#0" id="veh265_14400" to="1042716327" type="veh_passenger"/>
    <trip depart="14639.71" departLane="best" from="479812143#3" id="veh267_14400" to="479613108#1" type="veh_passenger"/>
    <trip depart="14641.51" departLane="best" from="623891500#1" id="veh269_14400" to="321073251" type="veh_passenger"/>
    <trip depart="14642.41" departLane="best" from="491638590#0" id="veh270_14400" to="1041521601" type="veh_passenger"/>
    <trip depart="14643.31" departLane="best" from="159455874#5" id="veh271_14400" to="1042334799" type="veh_passenger"/>
    <trip depart="14644.2" departLane="best" from="248698674#2" id="veh272_14400" to="1041286369" type="veh_passenger"/>
    <trip depart="14646" departLane="best" from="-475316645#0" id="veh274_14400" to="774852739#1" type="veh_passenger"/>
    <trip depart="14646.9" departLane="best" from="479621763#6" id="veh275_14400" to="622804124#1" type="veh_passenger"/>
    <trip depart="14648.69" departLane="best" from="483726628#1" id="veh277_14400" to="775380332#4" type="veh_passenger"/>
    <trip depart="14649.59" departLane="best" from="1036341364#0" id="veh278_14400" to="61163785#3" type="veh_passenger"/>
    <trip depart="14650.49" departLane="best" from="25931907" id="veh279_14400" to="216060954#3" type="veh_passenger"/>
    <trip depart="14651.39" departLane="best" from="159455892#3" id="veh280_14400" to="481854596#2" type="veh_passenger"/>
    <trip depart="14652.28" departLane="best" from="1036341362#1" id="veh281_14400" to="623474399#2" type="veh_passenger"/>
    <trip depart="14653.18" departLane="best" from="622873931#0" id="veh282_14400" to="-320755658#2" type="veh_passenger"/>
    <trip depart="14654.08" departLane="best" from="665451328#4" id="veh283_14400" to="1036052086#2" type="veh_passenger"/>
    <trip depart="14654.98" departLane="best" from="216065940#2" id="veh284_14400" to="390383583#0" type="veh_passenger"/>
    <trip depart="14657.67" departLane="best" from="-856908280" id="veh287_14400" to="584750383#1" type="veh_passenger"/>
    <trip depart="14659.47" departLane="best" from="480250295#0" id="veh289_14400" to="1036341355" type="veh_passenger"/>
    <trip depart="14661.26" departLane="best" from="-256157283#0" id="veh291_14400" to="480284575" type="veh_passenger"/>
    <trip depart="14662.16" departLane="best" from="235427743#0" id="veh292_14400" to="491628725#0" type="veh_passenger"/>
    <trip depart="14663.06" departLane="best" from="479812143#3" id="veh293_14400" to="479751374#1" type="veh_passenger"/>
    <trip depart="14663.96" departLane="best" from="235436489#0" id="veh294_14400" to="583797089#2" type="veh_passenger"/>
    <trip depart="14664.85" departLane="best" from="-25934395#4" id="veh295_14400" to="100646269#0" type="veh_passenger"/>
    <trip depart="14665.75" departLane="best" from="479812147#0" id="veh296_14400" to="1039133060" type="veh_passenger"/>
    <trip depart="14667.55" departLane="best" from="25931028#4" id="veh298_14400" to="156148419#3" type="veh_passenger"/>
    <trip depart="14668.44" departLane="best" from="489924065" id="veh299_14400" to="1040929341" type="veh_passenger"/>
    <trip depart="14669.34" departLane="best" from="480250296#2" id="veh300_14400" to="1036341350#3" type="veh_passenger"/>
    <trip depart="14670.24" departLane="best" from="1036114082" id="veh301_14400" to="-479621763#9" type="veh_passenger"/>
    <trip depart="14671.14" departLane="best" from="-61163785#3" id="veh302_14400" to="-479621763#5" type="veh_passenger"/>
    <trip depart="14672.04" departLane="best" from="25931033" id="veh303_14400" to="491628725#3" type="veh_passenger"/>
    <trip depart="14672.93" departLane="best" from="-491638583#3" id="veh304_14400" to="100646242#1" type="veh_passenger"/>
    <trip depart="14675.63" departLane="best" from="1036360487#6" id="veh307_14400" to="-475316653#0" type="veh_passenger"/>
    <trip depart="14676.52" departLane="best" from="-622805764#1" id="veh308_14400" to="1032987570#1" type="veh_passenger"/>
    <trip depart="14679.22" departLane="best" from="854040751" id="veh311_14400" to="25931028#5" type="veh_passenger"/>
    <trip depart="14680.12" departLane="best" from="479816723#2" id="veh312_14400" to="-479797258#1" type="veh_passenger"/>
    <trip depart="14681.91" departLane="best" from="658130902" id="veh314_14400" to="26234533#2" type="veh_passenger"/>
    <trip depart="14682.81" departLane="best" from="224737850#2" id="veh315_14400" to="159453472#0" type="veh_passenger"/>
    <trip depart="14683.71" departLane="best" from="-490718877#2" id="veh316_14400" to="-248698662" type="veh_passenger"/>
    <trip depart="14685.5" departLane="best" from="618371797" id="veh318_14400" to="1046628053" type="veh_passenger"/>
    <trip depart="14686.4" departLane="best" from="-255416142#4" id="veh319_14400" to="479621745#1" type="veh_passenger"/>
    <trip depart="14688.2" departLane="best" from="267535712" id="veh321_14400" to="1039133060" type="veh_passenger"/>
    <trip depart="14689.09" departLane="best" from="994962121#3" id="veh322_14400" to="-479621763#11" type="veh_passenger"/>
    <trip depart="14689.99" departLane="best" from="491628725#1" id="veh323_14400" to="379986688#1" type="veh_passenger"/>
    <trip depart="14691.79" departLane="best" from="256157278#0" id="veh325_14400" to="159455875#2" type="veh_passenger"/>
    <trip depart="14692.69" departLane="best" from="166563429#5" id="veh326_14400" to="625413762#1" type="veh_passenger"/>
    <trip depart="14693.58" departLane="best" from="901285521" id="veh327_14400" to="1039133060" type="veh_passenger"/>
    <trip depart="14694.48" departLane="best" from="479621743#1" id="veh328_14400" to="379986768" type="veh_passenger"/>
    <trip depart="14695.38" departLane="best" from="489606084-AddedOnRampEdge" id="veh329_14400" to="765467137" type="veh_passenger"/>
    <trip depart="14696.28" departLane="best" from="-665451328#7" id="veh330_14400" to="-775599627#0" type="veh_passenger"/>
    <trip depart="14697.17" departLane="best" from="479797300#0" id="veh331_14400" to="-480282280" type="veh_passenger"/>
    <trip depart="14698.07" departLane="best" from="-480475790#0" id="veh332_14400" to="-256157278#0" type="veh_passenger"/>
    <trip depart="14698.97" departLane="best" from="-100646234" id="veh333_14400" to="159455875#2" type="veh_passenger"/>