<routes>
    <vType id="veh_passenger" vClass="passenger"/>
    <trip depart="18000" departLane="best" from="479751369#4" id="veh0_18000" to="-159455892#6" type="veh_passenger"/>
    <trip depart="18000.9" departLane="best" from="1036346145" id="veh1_18000" to="100646295#1" type="veh_passenger"/>
    <trip depart="18001.8" departLane="best" from="486825027#0" id="veh2_18000" to="479797313#7" type="veh_passenger"/>
    <trip depart="18002.69" departLane="best" from="665453544" id="veh3_18000" to="-320755659#0" type="veh_passenger"/>
    <trip depart="18004.49" departLane="best" from="100646220#1" id="veh5_18000" to="235424958#4" type="veh_passenger"/>
    <trip depart="18005.39" departLane="best" from="-155033028#1" id="veh6_18000" to="-623891502#0" type="veh_passenger"/>
    <trip depart="18006.28" departLane="best" from="479797258#4" id="veh7_18000" to="25931028#0" type="veh_passenger"/>
    <trip depart="18007.18" departLane="best" from="100646245#3" id="veh8_18000" to="321071861#2" type="veh_passenger"/>
    <trip depart="18008.98" departLane="best" from="1041521602" id="veh10_18000" to="-480276564" type="veh_passenger"/>
    <trip depart="18009.88" departLane="best" from="773876919#5" id="veh11_18000" to="1041187875-AddedOnRampEdge" type="veh_passenger"/>
    <trip depart="18011.67" departLane="best" from="623474397#3" id="veh13_18000" to="321073948" type="veh_passenger"/>
    <trip depart="18012.57" departLane="best" from="61163715#4" id="veh14_18000" to="481854591#1" type="veh_passenger"/>
    <trip depart="18013.47" departLane="best" from="25931033" id="veh15_18000" to="854001005#0" type="veh_passenger"/>
    <trip depart="18015.26" departLane="best" from="622809059#0" id="veh17_18000" to="475316653#4" type="veh_passenger"/>
    <trip depart="18016.16" departLane="best" from="625413783#2" id="veh18_18000" to="320755665" type="veh_passenger"/>
    <trip depart="18019.75" departLane="best" from="-379986746#0" id="veh22_18000" to="1036341357#0" type="veh_passenger"/>
    <trip depart="18021.55" departLane="best" from="1042693362#0" id="veh24_18000" to="-775380332#0" type="veh_passenger"/>
    <trip depart="18022.45" departLane="best" from="1036341360#1" id="veh25_18000" to="743386900" type="veh_passenger"/>
    <trip depart="18023.34" departLane="best" from="479797253#1" id="veh26_18000" to="379986751" type="veh_passenger"/>
    <trip depart="18025.14" departLane="best" from="-480252897#2" id="veh28_18000" to="1042449170" type="veh_passenger"/>
    <trip depart="18026.04" departLane="best" from="901285519#0" id="veh29_18000" to="479621763#4" type="veh_passenger"/>
    <trip depart="18027.83" departLane="best" from="623128861" id="veh31_18000" to="491638585" type="veh_passenger"/>
    <trip depart="18030.53" departLane="best" from="-775380332#5" id="veh34_18000" to="765449928" type="veh_passenger"/>
    <trip depart="18032.32" departLane="best" from="479797277#5" id="veh36_18000" to="1042716326" type="veh_passenger"/>
    <trip depart="18033.22" departLane="best" from="742718528#2" id="veh37_18000" to="166563426#4" type="veh_passenger"/>
    <trip depart="18034.12" departLane="best" from="1036341358#0" id="veh38_18000" to="1036060565" type="veh_passenger"/>
    <trip depart="18035.01" departLane="best" from="26234656#0" id="veh39_18000" to="1036099955" type="veh_passenger"/>
    <trip depart="18035.91" departLane="best" from="321073225#2" id="veh40_18000" to="684128578#0" type="veh_passenger"/>
    <trip depart="18036.81" departLane="best" from="156148402#2" id="veh41_18000" to="100646256#0" type="veh_passenger"/>
    <trip depart="18037.71" departLane="best" from="994962124#6" id="veh42_18000" to="235424974#1" type="veh_passenger"/>
    <trip depart="18039.5" departLane="best" from="-475316653#5" id="veh44_18000" to="479613108#2" type="veh_passenger"/>
    <trip depart="18040.4" departLane="best" from="583797089#1" id="veh45_18000" to="156148413#0" type="veh_passenger"/>
    <trip depart="18041.3" departLane="best" from="-248698662" id="veh46_18000" to="1042676039" type="veh_passenger"/>
    <trip depart="18042.2" departLane="best" from="994962124#3" id="veh47_18000" to="248698674#2" type="veh_passenger"/>
    <trip depart="18043.09" departLane="best" from="854001005#0" id="veh48_18000" to="625413762#3" type="veh_passenger"/>
    <trip depart="18043.99" departLane="best" from="-1036047409#0" id="veh49_18000" to="480284576#2" type="veh_passenger"/>
    <trip depart="18044.89" departLane="best" from="479797341#1-AddedOnRampEdge" id="veh50_18000" to="255416224#2" type="veh_passenger"/>
    <trip depart="18045.79" departLane="best" from="1036341360#0" id="veh51_18000" to="479621763#7" type="veh_passenger"/>
    <trip depart="18046.69" departLane="best" from="-475319370" id="veh52_18000" to="159453447#8" type="veh_passenger"/>
    <trip depart="18047.58" departLane="best" from="178774212#0" id="veh53_18000" to="773159597#3" type="veh_passenger"/>
    <trip depart="18049.38" departLane="best" from="248698668#12" id="veh55_18000" to="-490165001#1" type="veh_passenger"/>
    <trip depart="18051.17" departLane="best" from="1039159932#1" id="veh57_18000" to="479621763#11" type="veh_passenger"/>
    <trip depart="18052.97" departLane="best" from="491462355" id="veh59_18000" to="255416245#1" type="veh_passenger"/>
    <trip depart="18053.87" departLane="best" from="491638583#0" id="veh60_18000" to="255416142#2" type="veh_passenger"/>
    <trip depart="18054.77" departLane="best" from="-100646217#1" id="veh61_18000" to="1040911960" type="veh_passenger"/>
    <trip depart="18059.26" departLane="best" from="-256157283#0" id="veh66_18000" to="216065938#0" type="veh_passenger"/>
    <trip depart="18060.15" departLane="best" from="-248698668#10" id="veh67_18000" to="491628725#1-AddedOffRampEdge" type="veh_passenger"/>
    <trip depart="18061.05" departLane="best" from="491628725#1-AddedOffRampEdge" id="veh68_18000" to="-479797283#1" type="veh_passenger"/>
    <trip depart="18061.95" departLane="best" from="224737854#2" id="veh69_18000" to="25931028#3" type="veh_passenger"/>
    <trip depart="18064.64" departLane="best" from="25931909" id="veh72_18000" to="481854591#1" type="veh_passenger"/>
    <trip depart="18065.54" departLane="best" from="-625413768#3" id="veh73_18000" to="1039159932#1" type="veh_passenger"/>
    <trip depart="18066.44" departLane="best" from="994962124#2" id="veh74_18000" to="479797239#0" type="veh_passenger"/>
    <trip depart="18068.23" departLane="best" from="-479621745#7" id="veh76_18000" to="1032262905#1" type="veh_passenger"/>
    <trip depart="18069.13" departLane="best" from="1041504065" id="veh77_18000" to="321071861#1" type="veh_passenger"/>
    <trip depart="18070.03" departLane="best" from="1032665742" id="veh78_18000" to="100646260#0" type="veh_passenger"/>
    <trip depart="18070.93" departLane="best" from="-248698668#8" id="veh79_18000" to="479621745#7" type="veh_passenger"/>
    <trip depart="18072.72" departLane="best" from="625413768#2" id="veh81_18000" to="-255416245#0" type="veh_passenger"/>
    <trip depart="18074.52" departLane="best" from="-994875416" id="veh83_18000" to="-479797308" type="veh_passenger"/>
    <trip depart="18075.42" departLane="best" from="742727484#1" id="veh84_18000" to="26234533#0" type="veh_passenger"/>
    <trip depart="18076.31" departLane="best" from="224737852#6" id="veh85_18000" to="538068606-AddedOffRampEdge" type="veh_passenger"/>
    <trip depart="18077.21" departLane="best" from="-320758120" id="veh86_18000" to="156148432#0" type="veh_passenger"/>
    <trip depart="18079.01" departLane="best" from="481854588#3" id="veh88_18000" to="479797313#0" type="veh_passenger"/>
    <trip depart="18080.8" departLane="best" from="156148407#0" id="veh90_18000" to="1041235840#1-AddedOffRampEdge" type="veh_passenger"/>
    <trip depart="18081.7" departLane="best" from="625413783#2" id="veh91_18000" to="1036062887" type="veh_passenger"/>
    <trip depart="18082.6" departLane="best" from="-61163715#2" id="veh92_18000" to="159455874#9" type="veh_passenger"/>
    <trip depart="18083.5" departLane="best" from="159453472#0" id="veh93_18000" to="1036341357#1" type="veh_passenger"/>
    <trip depart="18085.29" departLane="best" from="166563429#6" id="veh95_18000" to="625413766#0" type="veh_passenger"/>
    <trip depart="18087.09" departLane="best" from="996026061#1" id="veh97_18000" to="622873931#7" type="veh_passenger"/>
    <trip depart="18087.99" departLane="best" from="854001000#1" id="veh98_18000" to="742727471" type="veh_passenger"/>
    <trip depart="18089.78" departLane="best" from="235427270" id="veh100_18000" to="100646217#3" type="veh_passenger"/>
    <trip depart="18092.47" departLane="best" from="1036341358#1" id="veh103_18000" to="538068606-AddedOffRampEdge" type="veh_passenger"/>
    <trip depart="18093.37" departLane="best" from="178774217#1" id="veh104_18000" to="156148417" type="veh_passenger"/>
    <trip depart="18095.17" departLane="best" from="25934395#5" id="veh106_18000" to="480283416#1" type="veh_passenger"/>
    <trip depart="18096.07" departLane="best" from="-480250296#0" id="veh107_18000" to="1036360487#6" type="veh_passenger"/>
    <trip depart="18096.96" departLane="best" from="854001000#0" id="veh108_18000" to="320758120" type="veh_passenger"/>
    <trip depart="18097.86" departLane="best" from="25931909" id="veh109_18000" to="490192688#5" type="veh_passenger"/>
    <trip depart="18098.76" departLane="best" from="-234517427#4" id="veh110_18000" to="320758139" type="veh_passenger"/>
    <trip depart="18099.66" departLane="best" from="248698670#0" id="veh111_18000" to="623891500#1" type="veh_passenger"/>
    <trip depart="18100.55" departLane="best" from="-480250299#0" id="veh112_18000" to="774852739#1" type="veh_passenger"/>
    <trip depart="18102.35" departLane="best" from="323563821#1" id="veh114_18000" to="479797313#4" type="veh_passenger"/>
    <trip depart="18105.04" departLane="best" from="323563821#0" id="veh117_18000" to="475316658#1" type="veh_passenger"/>
    <trip depart="18105.94" departLane="best" from="159453449#8" id="veh118_18000" to="320758139" type="veh_passenger"/>
    <trip depart="18106.84" departLane="best" from="256157278#1" id="veh119_18000" to="742727484#3" type="veh_passenger"/>
    <trip depart="18107.74" departLane="best" from="-658095569#2" id="veh120_18000" to="480276562" type="veh_passenger"/>
    <trip depart="18108.63" departLane="best" from="1036060565" id="veh121_18000" to="1042716327" type="veh_passenger"/>
    <trip depart="18109.53" departLane="best" from="479797313#7" id="veh122_18000" to="1038266651" type="veh_passenger"/>
    <trip depart="18110.43" departLane="best" from="1040925852" id="veh123_18000" to="490213894-AddedOffRampEdge" type="veh_passenger"/>
    <trip depart="18111.33" departLane="best" from="-248698670#2" id="veh124_18000" to="166563426#3" type="veh_passenger"/>
    <trip depart="18112.23" departLane="best" from="-255416142#1" id="veh125_18000" to="100646208" type="veh_passenger"/>
    <trip depart="18113.12" departLane="best" from="1036341358#1" id="veh126_18000" to="742727484#0" type="veh_passenger"/>
    <trip depart="18114.02" departLane="best" from="1042693361#1" id="veh127_18000" to="-480282281#0" type="veh_passenger"/>
    <trip depart="18114.92" departLane="best" from="622873931#7" id="veh128_18000" to="480250293#0" type="veh_passenger"/>
    <trip depart="18115.82" departLane="best" from="475316653#6" id="veh129_18000" to="854052897#4" type="veh_passenger"/>
    <trip depart="18116.71" departLane="best" from="479797277#2" id="veh130_18000" to="-100646260#1" type="veh_passenger"/>
    <trip depart="18117.61" departLane="best" from="618364867#1" id="veh131_18000" to="1038110939" type="veh_passenger"/>
    <trip depart="18118.51" departLane="best" from="479797310#0" id="veh132_18000" to="765449926#0" type="veh_passenger"/>
    <trip depart="18120.31" departLane="best" from="-475316645#2" id="veh134_18000" to="25931028#5" type="veh_passenger"/>
    <trip depart="18123" departLane="best" from="479621763#12" id="veh137_18000" to="1036099956#3" type="veh_passenger"/>
    <trip depart="18123.9" departLane="best" from="235427743#0" id="veh138_18000" to="696730624" type="veh_passenger"/>
    <trip depart="18124.8" departLane="best" from="623474397#0" id="veh139_18000" to="-379986688#2" type="veh_passenger"/>
    <trip depart="18125.69" departLane="best" from="159453472#4" id="veh140_18000" to="1036341355" type="veh_passenger"/>
    <trip depart="18126.59" departLane="best" from="-100646242#1" id="veh141_18000" to="491632371#2" type="veh_passenger"/>
    <trip depart="18127.49" departLane="best" from="479621774#2" id="veh142_18000" to="1036099953" type="veh_passenger"/>
    <trip depart="18128.39" departLane="best" from="489606090" id="veh143_18000" to="25931028#4" type="veh_passenger"/>
    <trip depart="18129.28" departLane="best" from="159455874#4" id="veh144_18000" to="-100646264#0" type="veh_passenger"/>
    <trip depart="18130.18" departLane="best" from="-255416153" id="veh145_18000" to="665451330#1" type="veh_passenger"/>
    <trip depart="18131.98" departLane="best" from="622873934#0" id="veh147_18000" to="320758130#1" type="veh_passenger"/>
    <trip depart="18132.88" departLane="best" from="-479816722#1" id="veh148_18000" to="-479797258#5" type="veh_passenger"/>
    <trip depart="18133.77" departLane="best" from="1040260533" id="veh149_18000" to="684128578#2" type="veh_passenger"/>
    <trip depart="18134.67" departLane="best" from="583797089#8" id="veh150_18000" to="625413762#3" type="veh_passenger"/>
    <trip depart="18135.57" departLane="best" from="684128578#0" id="veh151_18000" to="-775380332#4" type="veh_passenger"/>
    <trip depart="18137.36" departLane="best" from="491638583#6" id="veh153_18000" to="665451330#2" type="veh_passenger"/>
    <trip depart="18138.26" departLane="best" from="156148419#1" id="veh154_18000" to="475319371#0" type="veh_passenger"/>
    <trip depart="18140.06" departLane="best" from="625418511" id="veh156_18000" to="854040750" type="veh_passenger"/>
    <trip depart="18143.65" departLane="best" from="61163710#13" id="veh160_18000" to="625413783#2" type="veh_passenger"/>
    <trip depart="18145.44" departLane="best" from="538068340#1" id="veh162_18000" to="-479613101#1" type="veh_passenger"/>
    <trip depart="18147.24" departLane="best" from="100646256#1" id="veh164_18000" to="618371794" type="veh_passenger"/>
    <trip depart="18148.14" departLane="best" from="216060954#1" id="veh165_18000" to="1039133060" type="veh_passenger"/>
    <trip depart="18149.04" departLane="best" from="583797089#7" id="veh166_18000" to="1032987570#1" type="veh_passenger"/>
    <trip depart="18149.93" departLane="best" from="-1042698679" id="veh167_18000" to="-622804129#0" type="veh_passenger"/>
    <trip depart="18150.83" departLane="best" from="1041235840#0" id="veh168_18000" to="625413783#3" type="veh_passenger"/>
    <trip depart="18151.73" departLane="best" from="479751865#1" id="veh169_18000" to="1042728028#1" type="veh_passenger"/>
    <trip depart="18152.63" departLane="best" from="854052892-AddedOffRampEdge" id="veh170_18000" to="255416223#1" type="veh_passenger"/>
    <trip depart="18153.52" departLane="best" from="764267604" id="veh171_18000" to="-479621752#0" type="veh_passenger"/>
    <trip depart="18154.42" departLane="best" from="854001002#1" id="veh172_18000" to="-490165001#1" type="veh_passenger"/>
    <trip depart="18155.32" departLane="best" from="775122579#1" id="veh173_18000" to="1036114082" type="veh_passenger"/>
    <trip depart="18156.22" departLane="best" from="-475316653#0" id="veh174_18000" to="159453447#8" type="veh_passenger"/>
    <trip depart="18157.12" departLane="best" from="481854585" id="veh175_18000" to="1039159937" type="veh_passenger"/>
    <trip depart="18158.91" departLane="best" from="123423117#1" id="veh177_18000" to="320755661#1" type="veh_passenger"/>
    <trip depart="18159.81" departLane="best" from="1036338535" id="veh178_18000" to="480250299#1" type="veh_passenger"/>
    <trip depart="18160.71" departLane="best" from="-100646220#2" id="veh179_18000" to="742727470" type="veh_passenger"/>
    <trip depart="18162.5" departLane="best" from="489606090" id="veh181_18000" to="479797310#7" type="veh_passenger"/>
    <trip depart="18163.4" departLane="best" from="1042449169#1" id="veh182_18000" to="-255416229#2" type="veh_passenger"/>
    <trip depart="18165.2" departLane="best" from="1040882903" id="veh184_18000" to="623138417" type="veh_passenger"/>
    <trip depart="18166.09" departLane="best" from="480284576#1" id="veh185_18000" to="1038324580" type="veh_passenger"/>
    <trip depart="18166.99" departLane="best" from="1040591005" id="veh186_18000" to="145126347" type="veh_passenger"/>
    <trip depart="18167.89" departLane="best" from="156148404#3" id="veh187_18000" to="1036360487#5" type="veh_passenger"/>
    <trip depart="18168.79" departLane="best" from="-479621763#5" id="veh188_18000" to="156148404#2" type="veh_passenger"/>
    <trip depart="18169.69" departLane="best" from="764267605" id="veh189_18000" to="479797318#0" type="veh_passenger"/>
    <trip depart="18171.48" departLane="best" from="1039159935" id="veh191_18000" to="25931028#2" type="veh_passenger"/>
    <trip depart="18172.38" departLane="best" from="-100646217#0" id="veh192_18000" to="1036342983" type="veh_passenger"/>
    <trip depart="18173.28" departLane="best" from="159455874#8" id="veh193_18000" to="320758122#1" type="veh_passenger"/>
    <trip depart="18175.07" departLane="best" from="166563429#4" id="veh195_18000" to="100646217#3" type="veh_passenger"/>
    <trip depart="18175.97" departLane="best" from="224737854#0" id="veh196_18000" to="684135634#2" type="veh_passenger"/>
    <trip depart="18176.87" departLane="best" from="583797089#8" id="veh197_18000" to="-483726628#0" type="veh_passenger"/>
    <trip depart="18178.66" departLane="best" from="479621758#4" id="veh199_18000" to="1041187875" type="veh_passenger"/>
    <trip depart="18180.46" departLane="best" from="479797318#4" id="veh201_18000" to="1032262905#1" type="veh_passenger"/>
    <trip depart="18181.36" departLane="best" from="-623891515#1" id="veh202_18000" to="-159455892#4" type="veh_passenger"/>
    <trip depart="18183.15" departLane="best" from="623474399#3" id="veh204_18000" to="-255416251#2" type="veh_passenger"/>
    <trip depart="18184.05" departLane="best" from="159453447#12" id="veh205_18000" to="479621745#2" type="veh_passenger"/>
    <trip depart="18184.95" departLane="best" from="-622873929#0" id="veh206_18000" to="479816723#0" type="veh_passenger"/>
    <trip depart="18185.85" departLane="best" from="245763347#0" id="veh207_18000" to="1036052086#2" type="veh_passenger"/>
    <trip depart="18186.74" departLane="best" from="479797279" id="veh208_18000" to="-100646248#2" type="veh_passenger"/>
    <trip depart="18188.54" departLane="best" from="-475316645#2" id="veh210_18000" to="156148419#2" type="veh_passenger"/>
    <trip depart="18189.44" departLane="best" from="-483796488#0" id="veh211_18000" to="773876919#3" type="veh_passenger"/>
    <trip depart="18192.13" departLane="best" from="178774219#2" id="veh214_18000" to="61163710#1" type="veh_passenger"/>
    <trip depart="18193.93" departLane="best" from="323563821#2" id="veh216_18000" to="773159596#1" type="veh_passenger"/>
    <trip depart="18194.82" departLane="best" from="665453544" id="veh217_18000" to="47070283#3" type="veh_passenger"/>
    <trip depart="18195.72" departLane="best" from="480284575" id="veh218_18000" to="235424958#4" type="veh_passenger"/>
    <trip depart="18196.62" departLane="best" from="622873931#0" id="veh219_18000" to="25931028#2" type="veh_passenger"/>
    <trip depart="18197.52" departLane="best" from="665453553" id="veh220_18000" to="489629072#3" type="veh_passenger"/>
    <trip depart="18199.31" departLane="best" from="1036079534" id="veh222_18000" to="479621758#3" type="veh_passenger"/>
    <trip depart="18202.01" departLane="best" from="-255416209#0" id="veh225_18000" to="1036342983" type="veh_passenger"/>
    <trip depart="18203.8" departLane="best" from="25931909" id="veh227_18000" to="-479797345#1" type="veh_passenger"/>
    <trip depart="18206.5" departLane="best" from="156148419#4" id="veh230_18000" to="256157279" type="veh_passenger"/>
    <trip depart="18209.19" departLane="best" from="321073225#1" id="veh233_18000" to="479816717#0" type="veh_passenger"/>
    <trip depart="18210.09" departLane="best" from="625397297" id="veh234_18000" to="491628727#0" type="veh_passenger"/>
    <trip depart="18210.98" departLane="best" from="1042716324" id="veh235_18000" to="-100646252#0" type="veh_passenger"/>
    <trip depart="18211.88" departLane="best" from="1041544550#0" id="veh236_18000" to="490216931#1" type="veh_passenger"/>
    <trip depart="18212.78" departLane="best" from="623891513" id="veh237_18000" to="773159597#3" type="veh_passenger"/>
    <trip depart="18213.68" departLane="best" from="159453449#7" id="veh238_18000" to="490192688#3-AddedOnRampEdge" type="veh_passenger"/>
    <trip depart="18214.58" departLane="best" from="25931950-AddedOffRampEdge" id="veh239_18000" to="321073948" type="veh_passenger"/>
    <trip depart="18216.37" departLane="best" from="1041504064" id="veh241_18000" to="479797321" type="veh_passenger"/>
    <trip depart="18218.17" departLane="best" from="224737849#3" id="veh243_18000" to="-479797258#6" type="veh_passenger"/>
    <trip depart="18219.96" departLane="best" from="156148397#3" id="veh245_18000" to="25934381#0" type="veh_passenger"/>
    <trip depart="18220.86" departLane="best" from="-156148407#1" id="veh246_18000" to="479751358#0" type="veh_passenger"/>
    <trip depart="18221.76" departLane="best" from="-479797279" id="veh247_18000" to="166563429#5" type="veh_passenger"/>
    <trip depart="18222.66" departLane="best" from="-216060954#0" id="veh248_18000" to="1042449170" type="veh_passenger"/>
    <trip depart="18223.55" departLane="best" from="490718877#0" id="veh249_18000" to="1042449170" type="veh_passenger"/>
    <trip depart="18225.35" departLane="best" from="1036313338" id="veh251_18000" to="-25934385#0" type="veh_passenger"/>
    <trip depart="18226.25" departLane="best" from="-1039220886" id="veh252_18000" to="255416245#1" type="veh_passenger"/>
    <trip depart="18227.15" departLane="best" from="479797258#5" id="veh253_18000" to="538068339#5" type="veh_passenger"/>
    <trip depart="18228.04" departLane="best" from="479797271" id="veh254_18000" to="490216934#0" type="veh_passenger"/>
    <trip depart="18228.94" departLane="best" from="773159597#1" id="veh255_18000" to="-623891512" type="veh_passenger"/>
    <trip depart="18230.74" departLane="best" from="-479621763#11" id="veh257_18000" to="479797310#2" type="veh_passenger"/>
    <trip depart="18231.63" departLane="best" from="267535712" id="veh258_18000" to="100646248#1" type="veh_passenger"/>
    <trip depart="18232.53" departLane="best" from="480250287#2" id="veh259_18000" to="491628727#1" type="veh_passenger"/>
    <trip depart="18233.43" departLane="best" from="-480284570" id="veh260_18000" to="379986688#5" type="veh_passenger"/>
    <trip depart="18234.33" departLane="best" from="490165001#0" id="veh261_18000" to="-479621751#0" type="veh_passenger"/>
    <trip depart="18236.12" departLane="best" from="-475316652#3" id="veh263_18000" to="-159457890#2" type="veh_passenger"/>
    <trip depart="18237.02" departLane="best" from="1040882902#0" id="veh264_18000" to="479797318#0" type="veh_passenger"/>
    <trip depart="18237.92" departLane="best" from="774852739#0" id="veh265_18000" to="1042716327" type="veh_passenger"/>
    <trip depart="18239.71" departLane="best" from="479812143#3" id="veh267_18000" to="479613108#1" type="veh_passenger"/>
    <trip depart="18241.51" departLane="best" from="623891500#1" id="veh269_18000" to="321073251" type="veh_passenger"/>
    <trip depart="18242.41" departLane="best" from="491638590#0" id="veh270_18000" to="1041521601" type="veh_passenger"/>
    <trip depart="18243.31" departLane="best" from="159455874#5" id="veh271_18000" to="1042334799" type="veh_passenger"/>
    <trip depart="18244.2" departLane="best" from="248698674#2" id="veh272_18000" to="1041286369" type="veh_passenger"/>
    <trip depart="18246" departLane="best" from="-475316645#0" id="veh274_18000" to="774852739#1" type="veh_passenger"/>
    <trip depart="18246.9" departLane="best" from="479621763#6" id="veh275_18000" to="622804124#1" type="veh_passenger"/>
    <trip depart="18248.69" departLane="best" from="483726628#1" id="veh277_18000" to="775380332#4" type="veh_passenger"/>
    <trip depart="18249.59" departLane="best" from="1036341364#0" id="veh278_18000" to="61163785#3" type="veh_passenger"/>
    <trip depart="18250.49" departLane="best" from="25931907" id="veh279_18000" to="216060954#3" type="veh_passenger"/>
    <trip depart="18251.39" departLane="best" from="159455892#3" id="veh280_18000" to="481854596#2" type="veh_passenger"/>
    <trip depart="18252.28" departLane="best" from="1036341362#1" id="veh281_18000" to="623474399#2" type="veh_passenger"/>
    <trip depart="18253.18" departLane="best" from="622873931#0" id="veh282_18000" to="-320755658#2" type="veh_passenger"/>
    <trip depart="18254.08" departLane="best" from="665451328#4" id="veh283_18000" to="1036052086#2" type="veh_passenger"/>
    <trip depart="18254.98" departLane="best" from="216065940#2" id="veh284_18000" to="390383583#0" type="veh_passenger"/>
    <trip depart="18257.67" departLane="best" from="-856908280" id="veh287_18000" to="584750383#1" type="veh_passenger"/>
    <trip depart="18259.47" departLane="best" from="480250295#0" id="veh289_18000" to="1036341355" type="veh_passenger"/>
    <trip depart="18261.26" departLane="best" from="-256157283#0" id="veh291_18000" to="480284575" type="veh_passenger"/>
    <trip depart="18262.16" departLane="best" from="235427743#0" id="veh292_18000" to="491628725#0" type="veh_passenger"/>
    <trip depart="18263.06" departLane="best" from="479812143#3" id="veh293_18000" to="479751374#1" type="veh_passenger"/>
    <trip depart="18263.96" departLane="best" from="235436489#0" id="veh294_18000" to="583797089#2" type="veh_passenger"/>
    <trip depart="18264.85" departLane="best" from="-25934395#4" id="veh295_18000" to="100646269#0" type="veh_passenger"/>
    <trip depart="18265.75" departLane="best" from="479812147#0" id="veh296_18000" to="1039133060" type="veh_passenger"/>
    <trip depart="18267.55" departLane="best" from="25931028#4" id="veh298_18000" to="156148419#3" type="veh_passenger"/>
    <trip depart="18268.44" departLane="best" from="489924065" id="veh299_18000" to="1040929341" type="veh_passenger"/>
    <trip depart="18269.34" departLane="best" from="480250296#2" id="veh300_18000" to="1036341350#3" type="veh_passenger"/>
    <trip depart="18270.24" departLane="best" from="1036114082" id="veh301_18000" to="-479621763#9" type="veh_passenger"/>
    <trip depart="18271.14" departLane="best" from="-61163785#3" id="veh302_18000" to="-479621763#5" type="veh_passenger"/>
    <trip depart="18272.04" departLane="best" from="25931033" id="veh303_18000" to="491628725#3" type="veh_passenger"/>
    <trip depart="18272.93" departLane="best" from="-491638583#3" id="veh304_18000" to="100646242#1" type="veh_passenger"/>
    <trip depart="18275.63" departLane="best" from="1036360487#6" id="veh307_18000" to="-475316653#0" type="veh_passenger"/>
    <trip depart="18276.52" departLane="best" from="-622805764#1" id="veh308_18000" to="1032987570#1" type="veh_passenger"/>
    <trip depart="18279.22" departLane="best" from="854040751" id="veh311_18000" to="25931028#5" type="veh_passenger"/>
    <trip depart="18280.12" departLane="best" from="479816723#2" id="veh312_18000" to="-479797258#1" type="veh_passenger"/>
    <trip depart="18281.91" departLane="best" from="658130902" id="veh314_18000" to="26234533#2" type="veh_passenger"/>
    <trip depart="18282.81" departLane="best" from="224737850#2" id="veh315_18000" to="159453472#0" type="veh_passenger"/>
    <trip depart="18283.71" departLane="best" from="-490718877#2" id="veh316_18000" to="-248698662" type="veh_passenger"/>
    <trip depart="18285.5" departLane="best" from="618371797" id="veh318_18000" to="1046628053" type="veh_passenger"/>
    <trip depart="18286.4" departLane="best" from="-255416142#4" id="veh319_18000" to="479621745#1" type="veh_passenger"/>
    <trip depart="18288.2" departLane="best" from="267535712" id="veh321_18000" to="1039133060" type="veh_passenger"/>
    <trip depart="18289.09" departLane="best" from="994962121#3" id="veh322_18000" to="-479621763#11" type="veh_passenger"/>
    <trip depart="18289.99" departLane="best" from="491628725#1" id="veh323_18000" to="379986688#1" type="veh_passenger"/>
    <trip depart="18291.79" departLane="best" from="256157278#0" id="veh325_18000" to="159455875#2" type="veh_passenger"/>
    <trip depart="18292.69" departLane="best" from="166563429#5" id="veh326_18000" to="625413762#1" type="veh_passenger"/>
    <trip depart="18293.58" departLane="best" from="901285521" id="veh327_18000" to="1039133060" type="veh_passenger"/>
    <trip depart="18294.48" departLane="best" from="479621743#1" id="veh328_18000" to="379986768" type="veh_passenger"/>
    <trip depart="18295.38" departLane="best" from="489606084-AddedOnRampEdge" id="veh329_18000" to="765467137" type="veh_passenger"/>
    <trip depart="18296.28" departLane="best" from="-665451328#7" id="veh330_18000" to="-775599627#0" type="veh_passenger"/>
    <trip depart="18297.17" departLane="best" from="479797300#0" id="veh331_18000" to="-480282280" type="veh_passenger"/>
    <trip depart="18298.07" departLane="best" from="-480475790#0" id="veh332_18000" to="-256157278#0" type="veh_passenger"/>
    <trip depart="18298.97" departLane="best" from="-100646234" id="veh333_18000" to="159455875#2" type="veh_passenger"/>