<routes>
    <vType id="veh_passenger" vClass="passenger"/>
    <trip depart="21600" departLane="best" from="479751369#4" id="veh0_21600" to="-159455892#6" type="veh_passenger"/>
    <trip depart="21600.9" departLane="best" from="1036346145" id="veh1_21600" to="100646295#1" type="veh_passenger"/>
    <trip depart="21601.8" departLane="best" from="486825027#0" id="veh2_21600" to="479797313#7" type="veh_passenger"/>
    <trip depart="21602.69" departLane="best" from="665453544" id="veh3_21600" to="-320755659#0" type="veh_passenger"/>
    <trip depart="21604.49" departLane="best" from="100646220#1" id="veh5_21600" to="235424958#4" type="veh_passenger"/>
    <trip depart="21605.39" departLane="best" from="-155033028#1" id="veh6_21600" to="-623891502#0" type="veh_passenger"/>
    <trip depart="21606.28" departLane="best" from="479797258#4" id="veh7_21600" to="25931028#0" type="veh_passenger"/>
    <trip depart="21607.18" departLane="best" from="100646245#3" id="veh8_21600" to="321071861#2" type="veh_passenger"/>
    <trip depart="21608.98" departLane="best" from="1041521602" id="veh10_21600" to="-480276564" type="veh_passenger"/>
    <trip depart="21609.88" departLane="best" from="773876919#5" id="veh11_21600" to="1041187875-AddedOnRampEdge" type="veh_passenger"/>
    <trip depart="21611.67" departLane="best" from="623474397#3" id="veh13_21600" to="321073948" type="veh_passenger"/>
    <trip depart="21612.57" departLane="best" from="61163715#4" id="veh14_21600" to="481854591#1" type="veh_passenger"/>
    <trip depart="21613.47" departLane="best" from="25931033" id="veh15_21600" to="854001005#0" type="veh_passenger"/>
    <trip depart="21615.26" departLane="best" from="622809059#0" id="veh17_21600" to="475316653#4" type="veh_passenger"/>
    <trip depart="21616.16" departLane="best" from="625413783#2" id="veh18_21600" to="320755665" type="veh_passenger"/>
    <trip depart="21619.75" departLane="best" from="-379986746#0" id="veh22_21600" to="1036341357#0" type="veh_passenger"/>
    <trip depart="21621.55" departLane="best" from="1042693362#0" id="veh24_21600" to="-775380332#0" type="veh_passenger"/>
    <trip depart="21622.45" departLane="best" from="1036341360#1" id="veh25_21600" to="743386900" type="veh_passenger"/>
    <trip depart="21623.34" departLane="best" from="479797253#1" id="veh26_21600" to="379986751" type="veh_passenger"/>
    <trip depart="21625.14" departLane="best" from="-480252897#2" id="veh28_21600" to="1042449170" type="veh_passenger"/>
    <trip depart="21626.04" departLane="best" from="901285519#0" id="veh29_21600" to="479621763#4" type="veh_passenger"/>
    <trip depart="21627.83" departLane="best" from="623128861" id="veh31_21600" to="491638585" type="veh_passenger"/>
    <trip depart="21630.53" departLane="best" from="-775380332#5" id="veh34_21600" to="765449928" type="veh_passenger"/>
    <trip depart="21632.32" departLane="best" from="479797277#5" id="veh36_21600" to="1042716326" type="veh_passenger"/>
    <trip depart="21633.22" departLane="best" from="742718528#2" id="veh37_21600" to="166563426#4" type="veh_passenger"/>
    <trip depart="21634.12" departLane="best" from="1036341358#0" id="veh38_21600" to="1036060565" type="veh_passenger"/>
    <trip depart="21635.01" departLane="best" from="26234656#0" id="veh39_21600" to="1036099955" type="veh_passenger"/>
    <trip depart="21635.91" departLane="best" from="321073225#2" id="veh40_21600" to="684128578#0" type="veh_passenger"/>
    <trip depart="21636.81" departLane="best" from="156148402#2" id="veh41_21600" to="100646256#0" type="veh_passenger"/>
    <trip depart="21637.71" departLane="best" from="994962124#6" id="veh42_21600" to="235424974#1" type="veh_passenger"/>
    <trip depart="21639.5" departLane="best" from="-475316653#5" id="veh44_21600" to="479613108#2" type="veh_passenger"/>
    <trip depart="21640.4" departLane="best" from="583797089#1" id="veh45_21600" to="156148413#0" type="veh_passenger"/>
    <trip depart="21641.3" departLane="best" from="-248698662" id="veh46_21600" to="1042676039" type="veh_passenger"/>
    <trip depart="21642.2" departLane="best" from="994962124#3" id="veh47_21600" to="248698674#2" type="veh_passenger"/>
    <trip depart="21643.09" departLane="best" from="854001005#0" id="veh48_21600" to="625413762#3" type="veh_passenger"/>
    <trip depart="21643.99" departLane="best" from="-1036047409#0" id="veh49_21600" to="480284576#2" type="veh_passenger"/>
    <trip depart="21644.89" departLane="best" from="479797341#1-AddedOnRampEdge" id="veh50_21600" to="255416224#2" type="veh_passenger"/>
    <trip depart="21645.79" departLane="best" from="1036341360#0" id="veh51_21600" to="479621763#7" type="veh_passenger"/>
    <trip depart="21646.69" departLane="best" from="-475319370" id="veh52_21600" to="159453447#8" type="veh_passenger"/>
    <trip depart="21647.58" departLane="best" from="178774212#0" id="veh53_21600" to="773159597#3" type="veh_passenger"/>
    <trip depart="21649.38" departLane="best" from="248698668#12" id="veh55_21600" to="-490165001#1" type="veh_passenger"/>
    <trip depart="21651.17" departLane="best" from="1039159932#1" id="veh57_21600" to="479621763#11" type="veh_passenger"/>
    <trip depart="21652.97" departLane="best" from="491462355" id="veh59_21600" to="255416245#1" type="veh_passenger"/>
    <trip depart="21653.87" departLane="best" from="491638583#0" id="veh60_21600" to="255416142#2" type="veh_passenger"/>
    <trip depart="21654.77" departLane="best" from="-100646217#1" id="veh61_21600" to="1040911960" type="veh_passenger"/>
    <trip depart="21659.26" departLane="best" from="-256157283#0" id="veh66_21600" to="216065938#0" type="veh_passenger"/>
    <trip depart="21660.15" departLane="best" from="-248698668#10" id="veh67_21600" to="491628725#1-AddedOffRampEdge" type="veh_passenger"/>
    <trip depart="21661.05" departLane="best" from="491628725#1-AddedOffRampEdge" id="veh68_21600" to="-479797283#1" type="veh_passenger"/>
    <trip depart="21661.95" departLane="best" from="224737854#2" id="veh69_21600" to="25931028#3" type="veh_passenger"/>
    <trip depart="21664.64" departLane="best" from="25931909" id="veh72_21600" to="481854591#1" type="veh_passenger"/>
    <trip depart="21665.54" departLane="best" from="-625413768#3" id="veh73_21600" to="1039159932#1" type="veh_passenger"/>
    <trip depart="21666.44" departLane="best" from="994962124#2" id="veh74_21600" to="479797239#0" type="veh_passenger"/>
    <trip depart="21668.23" departLane="best" from="-479621745#7" id="veh76_21600" to="1032262905#1" type="veh_passenger"/>
    <trip depart="21669.13" departLane="best" from="1041504065" id="veh77_21600" to="321071861#1" type="veh_passenger"/>
    <trip depart="21670.03" departLane="best" from="1032665742" id="veh78_21600" to="100646260#0" type="veh_passenger"/>
    <trip depart="21670.93" departLane="best" from="-248698668#8" id="veh79_21600" to="479621745#7" type="veh_passenger"/>
    <trip depart="21672.72" departLane="best" from="625413768#2" id="veh81_21600" to="-255416245#0" type="veh_passenger"/>
    <trip depart="21674.52" departLane="best" from="-994875416" id="veh83_21600" to="-479797308" type="veh_passenger"/>
    <trip depart="21675.42" departLane="best" from="742727484#1" id="veh84_21600" to="26234533#0" type="veh_passenger"/>
    <trip depart="21676.31" departLane="best" from="224737852#6" id="veh85_21600" to="538068606-AddedOffRampEdge" type="veh_passenger"/>
    <trip depart="21677.21" departLane="best" from="-320758120" id="veh86_21600" to="156148432#0" type="veh_passenger"/>
    <trip depart="21679.01" departLane="best" from="481854588#3" id="veh88_21600" to="479797313#0" type="veh_passenger"/>
    <trip depart="21680.8" departLane="best" from="156148407#0" id="veh90_21600" to="1041235840#1-AddedOffRampEdge" type="veh_passenger"/>
    <trip depart="21681.7" departLane="best" from="625413783#2" id="veh91_21600" to="1036062887" type="veh_passenger"/>
    <trip depart="21682.6" departLane="best" from="-61163715#2" id="veh92_21600" to="159455874#9" type="veh_passenger"/>
    <trip depart="21683.5" departLane="best" from="159453472#0" id="veh93_21600" to="1036341357#1" type="veh_passenger"/>
    <trip depart="21685.29" departLane="best" from="166563429#6" id="veh95_21600" to="625413766#0" type="veh_passenger"/>
    <trip depart="21687.09" departLane="best" from="996026061#1" id="veh97_21600" to="622873931#7" type="veh_passenger"/>
    <trip depart="21687.99" departLane="best" from="854001000#1" id="veh98_21600" to="742727471" type="veh_passenger"/>
    <trip depart="21689.78" departLane="best" from="235427270" id="veh100_21600" to="100646217#3" type="veh_passenger"/>
    <trip depart="21692.47" departLane="best" from="1036341358#1" id="veh103_21600" to="538068606-AddedOffRampEdge" type="veh_passenger"/>
    <trip depart="21693.37" departLane="best" from="178774217#1" id="veh104_21600" to="156148417" type="veh_passenger"/>
    <trip depart="21695.17" departLane="best" from="25934395#5" id="veh106_21600" to="480283416#1" type="veh_passenger"/>
    <trip depart="21696.07" departLane="best" from="-480250296#0" id="veh107_21600" to="1036360487#6" type="veh_passenger"/>
    <trip depart="21696.96" departLane="best" from="854001000#0" id="veh108_21600" to="320758120" type="veh_passenger"/>
    <trip depart="21697.86" departLane="best" from="25931909" id="veh109_21600" to="490192688#5" type="veh_passenger"/>
    <trip depart="21698.76" departLane="best" from="-234517427#4" id="veh110_21600" to="320758139" type="veh_passenger"/>
    <trip depart="21699.66" departLane="best" from="248698670#0" id="veh111_21600" to="623891500#1" type="veh_passenger"/>
    <trip depart="21700.55" departLane="best" from="-480250299#0" id="veh112_21600" to="774852739#1" type="veh_passenger"/>
    <trip depart="21702.35" departLane="best" from="323563821#1" id="veh114_21600" to="479797313#4" type="veh_passenger"/>
    <trip depart="21705.04" departLane="best" from="323563821#0" id="veh117_21600" to="475316658#1" type="veh_passenger"/>
    <trip depart="21705.94" departLane="best" from="159453449#8" id="veh118_21600" to="320758139" type="veh_passenger"/>
    <trip depart="21706.84" departLane="best" from="256157278#1" id="veh119_21600" to="742727484#3" type="veh_passenger"/>
    <trip depart="21707.74" departLane="best" from="-658095569#2" id="veh120_21600" to="480276562" type="veh_passenger"/>
    <trip depart="21708.63" departLane="best" from="1036060565" id="veh121_21600" to="1042716327" type="veh_passenger"/>
    <trip depart="21709.53" departLane="best" from="479797313#7" id="veh122_21600" to="1038266651" type="veh_passenger"/>
    <trip depart="21710.43" departLane="best" from="1040925852" id="veh123_21600" to="490213894-AddedOffRampEdge" type="veh_passenger"/>
    <trip depart="21711.33" departLane="best" from="-248698670#2" id="veh124_21600" to="166563426#3" type="veh_passenger"/>
    <trip depart="21712.23" departLane="best" from="-255416142#1" id="veh125_21600" to="100646208" type="veh_passenger"/>
    <trip depart="21713.12" departLane="best" from="1036341358#1" id="veh126_21600" to="742727484#0" type="veh_passenger"/>
    <trip depart="21714.02" departLane="best" from="1042693361#1" id="veh127_21600" to="-480282281#0" type="veh_passenger"/>
    <trip depart="21714.92" departLane="best" from="622873931#7" id="veh128_21600" to="480250293#0" type="veh_passenger"/>
    <trip depart="21715.82" departLane="best" from="475316653#6" id="veh129_21600" to="854052897#4" type="veh_passenger"/>
    <trip depart="21716.71" departLane="best" from="479797277#2" id="veh130_21600" to="-100646260#1" type="veh_passenger"/>
    <trip depart="21717.61" departLane="best" from="618364867#1" id="veh131_21600" to="1038110939" type="veh_passenger"/>
    <trip depart="21718.51" departLane="best" from="479797310#0" id="veh132_21600" to="765449926#0" type="veh_passenger"/>
    <trip depart="21720.31" departLane="best" from="-475316645#2" id="veh134_21600" to="25931028#5" type="veh_passenger"/>
    <trip depart="21723" departLane="best" from="479621763#12" id="veh137_21600" to="1036099956#3" type="veh_passenger"/>
    <trip depart="21723.9" departLane="best" from="235427743#0" id="veh138_21600" to="696730624" type="veh_passenger"/>
    <trip depart="21724.8" departLane="best" from="623474397#0" id="veh139_21600" to="-379986688#2" type="veh_passenger"/>
    <trip depart="21725.69" departLane="best" from="159453472#4" id="veh140_21600" to="1036341355" type="veh_passenger"/>
    <trip depart="21726.59" departLane="best" from="-100646242#1" id="veh141_21600" to="491632371#2" type="veh_passenger"/>
    <trip depart="21727.49" departLane="best" from="479621774#2" id="veh142_21600" to="1036099953" type="veh_passenger"/>
    <trip depart="21728.39" departLane="best" from="489606090" id="veh143_21600" to="25931028#4" type="veh_passenger"/>
    <trip depart="21729.28" departLane="best" from="159455874#4" id="veh144_21600" to="-100646264#0" type="veh_passenger"/>
    <trip depart="21730.18" departLane="best" from="-255416153" id="veh145_21600" to="665451330#1" type="veh_passenger"/>
    <trip depart="21731.98" departLane="best" from="622873934#0" id="veh147_21600" to="320758130#1" type="veh_passenger"/>
    <trip depart="21732.88" departLane="best" from="-479816722#1" id="veh148_21600" to="-479797258#5" type="veh_passenger"/>
    <trip depart="21733.77" departLane="best" from="1040260533" id="veh149_21600" to="684128578#2" type="veh_passenger"/>
    <trip depart="21734.67" departLane="best" from="583797089#8" id="veh150_21600" to="625413762#3" type="veh_passenger"/>
    <trip depart="21735.57" departLane="best" from="684128578#0" id="veh151_21600" to="-775380332#4" type="veh_passenger"/>
    <trip depart="21737.36" departLane="best" from="491638583#6" id="veh153_21600" to="665451330#2" type="veh_passenger"/>
    <trip depart="21738.26" departLane="best" from="156148419#1" id="veh154_21600" to="475319371#0" type="veh_passenger"/>
    <trip depart="21740.06" departLane="best" from="625418511" id="veh156_21600" to="854040750" type="veh_passenger"/>
    <trip depart="21743.65" departLane="best" from="61163710#13" id="veh160_21600" to="625413783#2" type="veh_passenger"/>
    <trip depart="21745.44" departLane="best" from="538068340#1" id="veh162_21600" to="-479613101#1" type="veh_passenger"/>
    <trip depart="21747.24" departLane="best" from="100646256#1" id="veh164_21600" to="618371794" type="veh_passenger"/>
    <trip depart="21748.14" departLane="best" from="216060954#1" id="veh165_21600" to="1039133060" type="veh_passenger"/>
    <trip depart="21749.04" departLane="best" from="583797089#7" id="veh166_21600" to="1032987570#1" type="veh_passenger"/>
    <trip depart="21749.93" departLane="best" from="-1042698679" id="veh167_21600" to="-622804129#0" type="veh_passenger"/>
    <trip depart="21750.83" departLane="best" from="1041235840#0" id="veh168_21600" to="625413783#3" type="veh_passenger"/>
    <trip depart="21751.73" departLane="best" from="479751865#1" id="veh169_21600" to="1042728028#1" type="veh_passenger"/>
    <trip depart="21752.63" departLane="best" from="854052892-AddedOffRampEdge" id="veh170_21600" to="255416223#1" type="veh_passenger"/>
    <trip depart="21753.52" departLane="best" from="764267604" id="veh171_21600" to="-479621752#0" type="veh_passenger"/>
    <trip depart="21754.42" departLane="best" from="854001002#1" id="veh172_21600" to="-490165001#1" type="veh_passenger"/>
    <trip depart="21755.32" departLane="best" from="775122579#1" id="veh173_21600" to="1036114082" type="veh_passenger"/>
    <trip depart="21756.22" departLane="best" from="-475316653#0" id="veh174_21600" to="159453447#8" type="veh_passenger"/>
    <trip depart="21757.12" departLane="best" from="481854585" id="veh175_21600" to="1039159937" type="veh_passenger"/>
    <trip depart="21758.91" departLane="best" from="123423117#1" id="veh177_21600" to="320755661#1" type="veh_passenger"/>
    <trip depart="21759.81" departLane="best" from="1036338535" id="veh178_21600" to="480250299#1" type="veh_passenger"/>
    <trip depart="21760.71" departLane="best" from="-100646220#2" id="veh179_21600" to="742727470" type="veh_passenger"/>
    <trip depart="21762.5" departLane="best" from="489606090" id="veh181_21600" to="479797310#7" type="veh_passenger"/>
    <trip depart="21763.4" departLane="best" from="1042449169#1" id="veh182_21600" to="-255416229#2" type="veh_passenger"/>
    <trip depart="21765.2" departLane="best" from="1040882903" id="veh184_21600" to="623138417" type="veh_passenger"/>
    <trip depart="21766.09" departLane="best" from="480284576#1" id="veh185_21600" to="1038324580" type="veh_passenger"/>
    <trip depart="21766.99" departLane="best" from="1040591005" id="veh186_21600" to="145126347" type="veh_passenger"/>
    <trip depart="21767.89" departLane="best" from="156148404#3" id="veh187_21600" to="1036360487#5" type="veh_passenger"/>
    <trip depart="21768.79" departLane="best" from="-479621763#5" id="veh188_21600" to="156148404#2" type="veh_passenger"/>
    <trip depart="21769.69" departLane="best" from="764267605" id="veh189_21600" to="479797318#0" type="veh_passenger"/>
    <trip depart="21771.48" departLane="best" from="1039159935" id="veh191_21600" to="25931028#2" type="veh_passenger"/>
    <trip depart="21772.38" departLane="best" from="-100646217#0" id="veh192_21600" to="1036342983" type="veh_passenger"/>
    <trip depart="21773.28" departLane="best" from="159455874#8" id="veh193_21600" to="320758122#1" type="veh_passenger"/>
    <trip depart="21775.07" departLane="best" from="166563429#4" id="veh195_21600" to="100646217#3" type="veh_passenger"/>
    <trip depart="21775.97" departLane="best" from="224737854#0" id="veh196_21600" to="684135634#2" type="veh_passenger"/>
    <trip depart="21776.87" departLane="best" from="583797089#8" id="veh197_21600" to="-483726628#0" type="veh_passenger"/>
    <trip depart="21778.66" departLane="best" from="479621758#4" id="veh199_21600" to="1041187875" type="veh_passenger"/>
    <trip depart="21780.46" departLane="best" from="479797318#4" id="veh201_21600" to="1032262905#1" type="veh_passenger"/>
    <trip depart="21781.36" departLane="best" from="-623891515#1" id="veh202_21600" to="-159455892#4" type="veh_passenger"/>
    <trip depart="21783.15" departLane="best" from="623474399#3" id="veh204_21600" to="-255416251#2" type="veh_passenger"/>
    <trip depart="21784.05" departLane="best" from="159453447#12" id="veh205_21600" to="479621745#2" type="veh_passenger"/>
    <trip depart="21784.95" departLane="best" from="-622873929#0" id="veh206_21600" to="479816723#0" type="veh_passenger"/>
    <trip depart="21785.85" departLane="best" from="245763347#0" id="veh207_21600" to="1036052086#2" type="veh_passenger"/>
    <trip depart="21786.74" departLane="best" from="479797279" id="veh208_21600" to="-100646248#2" type="veh_passenger"/>
    <trip depart="21788.54" departLane="best" from="-475316645#2" id="veh210_21600" to="156148419#2" type="veh_passenger"/>
    <trip depart="21789.44" departLane="best" from="-483796488#0" id="veh211_21600" to="773876919#3" type="veh_passenger"/>
    <trip depart="21792.13" departLane="best" from="178774219#2" id="veh214_21600" to="61163710#1" type="veh_passenger"/>
    <trip depart="21793.93" departLane="best" from="323563821#2" id="veh216_21600" to="773159596#1" type="veh_passenger"/>
    <trip depart="21794.82" departLane="best" from="665453544" id="veh217_21600" to="47070283#3" type="veh_passenger"/>
    <trip depart="21795.72" departLane="best" from="480284575" id="veh218_21600" to="235424958#4" type="veh_passenger"/>
    <trip depart="21796.62" departLane="best" from="622873931#0" id="veh219_21600" to="25931028#2" type="veh_passenger"/>
    <trip depart="21797.52" departLane="best" from="665453553" id="veh220_21600" to="489629072#3" type="veh_passenger"/>
    <trip depart="21799.31" departLane="best" from="1036079534" id="veh222_21600" to="479621758#3" type="veh_passenger"/>
    <trip depart="21802.01" departLane="best" from="-255416209#0" id="veh225_21600" to="1036342983" type="veh_passenger"/>
    <trip depart="21803.8" departLane="best" from="25931909" id="veh227_21600" to="-479797345#1" type="veh_passenger"/>
    <trip depart="21806.5" departLane="best" from="156148419#4" id="veh230_21600" to="256157279" type="veh_passenger"/>
    <trip depart="21809.19" departLane="best" from="321073225#1" id="veh233_21600" to="479816717#0" type="veh_passenger"/>
    <trip depart="21810.09" departLane="best" from="625397297" id="veh234_21600" to="491628727#0" type="veh_passenger"/>
    <trip depart="21810.98" departLane="best" from="1042716324" id="veh235_21600" to="-100646252#0" type="veh_passenger"/>
    <trip depart="21811.88" departLane="best" from="1041544550#0" id="veh236_21600" to="490216931#1" type="veh_passenger"/>
    <trip depart="21812.78" departLane="best" from="623891513" id="veh237_21600" to="773159597#3" type="veh_passenger"/>
    <trip depart="21813.68" departLane="best" from="159453449#7" id="veh238_21600" to="490192688#3-AddedOnRampEdge" type="veh_passenger"/>
    <trip depart="21814.58" departLane="best" from="25931950-AddedOffRampEdge" id="veh239_21600" to="321073948" type="veh_passenger"/>
    <trip depart="21816.37" departLane="best" from="1041504064" id="veh241_21600" to="479797321" type="veh_passenger"/>
    <trip depart="21818.17" departLane="best" from="224737849#3" id="veh243_21600" to="-479797258#6" type="veh_passenger"/>
    <trip depart="21819.96" departLane="best" from="156148397#3" id="veh245_21600" to="25934381#0" type="veh_passenger"/>
    <trip depart="21820.86" departLane="best" from="-156148407#1" id="veh246_21600" to="479751358#0" type="veh_passenger"/>
    <trip depart="21821.76" departLane="best" from="-479797279" id="veh247_21600" to="166563429#5" type="veh_passenger"/>
    <trip depart="21822.66" departLane="best" from="-216060954#0" id="veh248_21600" to="1042449170" type="veh_passenger"/>
    <trip depart="21823.55" departLane="best" from="490718877#0" id="veh249_21600" to="1042449170" type="veh_passenger"/>
    <trip depart="21825.35" departLane="best" from="1036313338" id="veh251_21600" to="-25934385#0" type="veh_passenger"/>
    <trip depart="21826.25" departLane="best" from="-1039220886" id="veh252_21600" to="255416245#1" type="veh_passenger"/>
    <trip depart="21827.15" departLane="best" from="479797258#5" id="veh253_21600" to="538068339#5" type="veh_passenger"/>
    <trip depart="21828.04" departLane="best" from="479797271" id="veh254_21600" to="490216934#0" type="veh_passenger"/>
    <trip depart="21828.94" departLane="best" from="773159597#1" id="veh255_21600" to="-623891512" type="veh_passenger"/>
    <trip depart="21830.74" departLane="best" from="-479621763#11" id="veh257_21600" to="479797310#2" type="veh_passenger"/>
    <trip depart="21831.63" departLane="best" from="267535712" id="veh258_21600" to="100646248#1" type="veh_passenger"/>
    <trip depart="21832.53" departLane="best" from="480250287#2" id="veh259_21600" to="491628727#1" type="veh_passenger"/>
    <trip depart="21833.43" departLane="best" from="-480284570" id="veh260_21600" to="379986688#5" type="veh_passenger"/>
    <trip depart="21834.33" departLane="best" from="490165001#0" id="veh261_21600" to="-479621751#0" type="veh_passenger"/>
    <trip depart="21836.12" departLane="best" from="-475316652#3" id="veh263_21600" to="-159457890#2" type="veh_passenger"/>
    <trip depart="21837.02" departLane="best" from="1040882902#0" id="veh264_21600" to="479797318#0" type="veh_passenger"/>
    <trip depart="21837.92" departLane="best" from="774852739#0" id="veh265_21600" to="1042716327" type="veh_passenger"/>
    <trip depart="21839.71" departLane="best" from="479812143#3" id="veh267_21600" to="479613108#1" type="veh_passenger"/>
    <trip depart="21841.51" departLane="best" from="623891500#1" id="veh269_21600" to="321073251" type="veh_passenger"/>
    <trip depart="21842.41" departLane="best" from="491638590#0" id="veh270_21600" to="1041521601" type="veh_passenger"/>
    <trip depart="21843.31" departLane="best" from="159455874#5" id="veh271_21600" to="1042334799" type="veh_passenger"/>
    <trip depart="21844.2" departLane="best" from="248698674#2" id="veh272_21600" to="1041286369" type="veh_passenger"/>
    <trip depart="21846" departLane="best" from="-475316645#0" id="veh274_21600" to="774852739#1" type="veh_passenger"/>
    <trip depart="21846.9" departLane="best" from="479621763#6" id="veh275_21600" to="622804124#1" type="veh_passenger"/>
    <trip depart="21848.69" departLane="best" from="483726628#1" id="veh277_21600" to="775380332#4" type="veh_passenger"/>
    <trip depart="21849.59" departLane="best" from="1036341364#0" id="veh278_21600" to="61163785#3" type="veh_passenger"/>
    <trip depart="21850.49" departLane="best" from="25931907" id="veh279_21600" to="216060954#3" type="veh_passenger"/>
    <trip depart="21851.39" departLane="best" from="159455892#3" id="veh280_21600" to="481854596#2" type="veh_passenger"/>
    <trip depart="21852.28" departLane="best" from="1036341362#1" id="veh281_21600" to="623474399#2" type="veh_passenger"/>
    <trip depart="21853.18" departLane="best" from="622873931#0" id="veh282_21600" to="-320755658#2" type="veh_passenger"/>
    <trip depart="21854.08" departLane="best" from="665451328#4" id="veh283_21600" to="1036052086#2" type="veh_passenger"/>
    <trip depart="21854.98" departLane="best" from="216065940#2" id="veh284_21600" to="390383583#0" type="veh_passenger"/>
    <trip depart="21857.67" departLane="best" from="-856908280" id="veh287_21600" to="584750383#1" type="veh_passenger"/>
    <trip depart="21859.47" departLane="best" from="480250295#0" id="veh289_21600" to="1036341355" type="veh_passenger"/>
    <trip depart="21861.26" departLane="best" from="-256157283#0" id="veh291_21600" to="480284575" type="veh_passenger"/>
    <trip depart="21862.16" departLane="best" from="235427743#0" id="veh292_21600" to="491628725#0" type="veh_passenger"/>
    <trip depart="21863.06" departLane="best" from="479812143#3" id="veh293_21600" to="479751374#1" type="veh_passenger"/>
    <trip depart="21863.96" departLane="best" from="235436489#0" id="veh294_21600" to="583797089#2" type="veh_passenger"/>
    <trip depart="21864.85" departLane="best" from="-25934395#4" id="veh295_21600" to="100646269#0" type="veh_passenger"/>
    <trip depart="21865.75" departLane="best" from="479812147#0" id="veh296_21600" to="1039133060" type="veh_passenger"/>
    <trip depart="21867.55" departLane="best" from="25931028#4" id="veh298_21600" to="156148419#3" type="veh_passenger"/>
    <trip depart="21868.44" departLane="best" from="489924065" id="veh299_21600" to="1040929341" type="veh_passenger"/>
    <trip depart="21869.34" departLane="best" from="480250296#2" id="veh300_21600" to="1036341350#3" type="veh_passenger"/>
    <trip depart="21870.24" departLane="best" from="1036114082" id="veh301_21600" to="-479621763#9" type="veh_passenger"/>
    <trip depart="21871.14" departLane="best" from="-61163785#3" id="veh302_21600" to="-479621763#5" type="veh_passenger"/>
    <trip depart="21872.04" departLane="best" from="25931033" id="veh303_21600" to="491628725#3" type="veh_passenger"/>
    <trip depart="21872.93" departLane="best" from="-491638583#3" id="veh304_21600" to="100646242#1" type="veh_passenger"/>
    <trip depart="21875.63" departLane="best" from="1036360487#6" id="veh307_21600" to="-475316653#0" type="veh_passenger"/>
    <trip depart="21876.52" departLane="best" from="-622805764#1" id="veh308_21600" to="1032987570#1" type="veh_passenger"/>
    <trip depart="21879.22" departLane="best" from="854040751" id="veh311_21600" to="25931028#5" type="veh_passenger"/>
    <trip depart="21880.12" departLane="best" from="479816723#2" id="veh312_21600" to="-479797258#1" type="veh_passenger"/>
    <trip depart="21881.91" departLane="best" from="658130902" id="veh314_21600" to="26234533#2" type="veh_passenger"/>
    <trip depart="21882.81" departLane="best" from="224737850#2" id="veh315_21600" to="159453472#0" type="veh_passenger"/>
    <trip depart="21883.71" departLane="best" from="-490718877#2" id="veh316_21600" to="-248698662" type="veh_passenger"/>
    <trip depart="21885.5" departLane="best" from="618371797" id="veh318_21600" to="1046628053" type="veh_passenger"/>
    <trip depart="21886.4" departLane="best" from="-255416142#4" id="veh319_21600" to="479621745#1" type="veh_passenger"/>
    <trip depart="21888.2" departLane="best" from="267535712" id="veh321_21600" to="1039133060" type="veh_passenger"/>
    <trip depart="21889.09" departLane="best" from="994962121#3" id="veh322_21600" to="-479621763#11" type="veh_passenger"/>
    <trip depart="21889.99" departLane="best" from="491628725#1" id="veh323_21600" to="379986688#1" type="veh_passenger"/>
    <trip depart="21891.79" departLane="best" from="256157278#0" id="veh325_21600" to="159455875#2" type="veh_passenger"/>
    <trip depart="21892.69" departLane="best" from="166563429#5" id="veh326_21600" to="625413762#1" type="veh_passenger"/>
    <trip depart="21893.58" departLane="best" from="901285521" id="veh327_21600" to="1039133060" type="veh_passenger"/>
    <trip depart="21894.48" departLane="best" from="479621743#1" id="veh328_21600" to="379986768" type="veh_passenger"/>
    <trip depart="21895.38" departLane="best" from="489606084-AddedOnRampEdge" id="veh329_21600" to="765467137" type="veh_passenger"/>
    <trip depart="21896.28" departLane="best" from="-665451328#7" id="veh330_21600" to="-775599627#0" type="veh_passenger"/>
    <trip depart="21897.17" departLane="best" from="479797300#0" id="veh331_21600" to="-480282280" type="veh_passenger"/>
    <trip depart="21898.07" departLane="best" from="-480475790#0" id="veh332_21600" to="-256157278#0" type="veh_passenger"/>
    <trip depart="21898.97" departLane="best" from="-100646234" id="veh333_21600" to="159455875#2" type="veh_passenger"/>