<routes>
    <vType id="veh_passenger" vClass="passenger"/>
    <trip depart="25200" departLane="best" from="479751369#4" id="veh0_25200" to="-159455892#6" type="veh_passenger"/>
    <trip depart="25200.9" departLane="best" from="1036346145" id="veh1_25200" to="100646295#1" type="veh_passenger"/>
    <trip depart="25201.8" departLane="best" from="486825027#0" id="veh2_25200" to="479797313#7" type="veh_passenger"/>
    <trip depart="25202.69" departLane="best" from="665453544" id="veh3_25200" to="-320755659#0" type="veh_passenger"/>
    <trip depart="25204.49" departLane="best" from="100646220#1" id="veh5_25200" to="235424958#4" type="veh_passenger"/>
    <trip depart="25205.39" departLane="best" from="-155033028#1" id="veh6_25200" to="-623891502#0" type="veh_passenger"/>
    <trip depart="25206.28" departLane="best" from="479797258#4" id="veh7_25200" to="25931028#0" type="veh_passenger"/>
    <trip depart="25207.18" departLane="best" from="100646245#3" id="veh8_25200" to="321071861#2" type="veh_passenger"/>
    <trip depart="25208.98" departLane="best" from="1041521602" id="veh10_25200" to="-480276564" type="veh_passenger"/>
    <trip depart="25209.88" departLane="best" from="773876919#5" id="veh11_25200" to="1041187875-AddedOnRampEdge" type="veh_passenger"/>
    <trip depart="25211.67" departLane="best" from="623474397#3" id="veh13_25200" to="321073948" type="veh_passenger"/>
    <trip depart="25212.57" departLane="best" from="61163715#4" id="veh14_25200" to="481854591#1" type="veh_passenger"/>
    <trip depart="25213.47" departLane="best" from="25931033" id="veh15_25200" to="854001005#0" type="veh_passenger"/>
    <trip depart="25215.26" departLane="best" from="622809059#0" id="veh17_25200" to="475316653#4" type="veh_passenger"/>
    <trip depart="25216.16" departLane="best" from="625413783#2" id="veh18_25200" to="320755665" type="veh_passenger"/>
    <trip depart="25219.75" departLane="best" from="-379986746#0" id="veh22_25200" to="1036341357#0" type="veh_passenger"/>
    <trip depart="25221.55" departLane="best" from="1042693362#0" id="veh24_25200" to="-775380332#0" type="veh_passenger"/>
    <trip depart="25222.45" departLane="best" from="1036341360#1" id="veh25_25200" to="743386900" type="veh_passenger"/>
    <trip depart="25223.34" departLane="best" from="479797253#1" id="veh26_25200" to="379986751" type="veh_passenger"/>
    <trip depart="25225.14" departLane="best" from="-480252897#2" id="veh28_25200" to="1042449170" type="veh_passenger"/>
    <trip depart="25226.04" departLane="best" from="901285519#0" id="veh29_25200" to="479621763#4" type="veh_passenger"/>
    <trip depart="25227.83" departLane="best" from="623128861" id="veh31_25200" to="491638585" type="veh_passenger"/>
    <trip depart="25230.53" departLane="best" from="-775380332#5" id="veh34_25200" to="765449928" type="veh_passenger"/>
    <trip depart="25232.32" departLane="best" from="479797277#5" id="veh36_25200" to="1042716326" type="veh_passenger"/>
    <trip depart="25233.22" departLane="best" from="742718528#2" id="veh37_25200" to="166563426#4" type="veh_passenger"/>
    <trip depart="25234.12" departLane="best" from="1036341358#0" id="veh38_25200" to="1036060565" type="veh_passenger"/>
    <trip depart="25235.01" departLane="best" from="26234656#0" id="veh39_25200" to="1036099955" type="veh_passenger"/>
    <trip depart="25235.91" departLane="best" from="321073225#2" id="veh40_25200" to="684128578#0" type="veh_passenger"/>
    <trip depart="25236.81" departLane="best" from="156148402#2" id="veh41_25200" to="100646256#0" type="veh_passenger"/>
    <trip depart="25237.71" departLane="best" from="994962124#6" id="veh42_25200" to="235424974#1" type="veh_passenger"/>
    <trip depart="25239.5" departLane="best" from="-475316653#5" id="veh44_25200" to="479613108#2" type="veh_passenger"/>
    <trip depart="25240.4" departLane="best" from="583797089#1" id="veh45_25200" to="156148413#0" type="veh_passenger"/>
    <trip depart="25241.3" departLane="best" from="-248698662" id="veh46_25200" to="1042676039" type="veh_passenger"/>
    <trip depart="25242.2" departLane="best" from="994962124#3" id="veh47_25200" to="248698674#2" type="veh_passenger"/>
    <trip depart="25243.09" departLane="best" from="854001005#0" id="veh48_25200" to="625413762#3" type="veh_passenger"/>
    <trip depart="25243.99" departLane="best" from="-1036047409#0" id="veh49_25200" to="480284576#2" type="veh_passenger"/>
    <trip depart="25244.89" departLane="best" from="479797341#1-AddedOnRampEdge" id="veh50_25200" to="255416224#2" type="veh_passenger"/>
    <trip depart="25245.79" departLane="best" from="1036341360#0" id="veh51_25200" to="479621763#7" type="veh_passenger"/>
    <trip depart="25246.69" departLane="best" from="-475319370" id="veh52_25200" to="159453447#8" type="veh_passenger"/>
    <trip depart="25247.58" departLane="best" from="178774212#0" id="veh53_25200" to="773159597#3" type="veh_passenger"/>
    <trip depart="25249.38" departLane="best" from="248698668#12" id="veh55_25200" to="-490165001#1" type="veh_passenger"/>
    <trip depart="25251.17" departLane="best" from="1039159932#1" id="veh57_25200" to="479621763#11" type="veh_passenger"/>
    <trip depart="25252.97" departLane="best" from="491462355" id="veh59_25200" to="255416245#1" type="veh_passenger"/>
    <trip depart="25253.87" departLane="best" from="491638583#0" id="veh60_25200" to="255416142#2" type="veh_passenger"/>
    <trip depart="25254.77" departLane="best" from="-100646217#1" id="veh61_25200" to="1040911960" type="veh_passenger"/>
    <trip depart="25259.26" departLane="best" from="-256157283#0" id="veh66_25200" to="216065938#0" type="veh_passenger"/>
    <trip depart="25260.15" departLane="best" from="-248698668#10" id="veh67_25200" to="491628725#1-AddedOffRampEdge" type="veh_passenger"/>
    <trip depart="25261.05" departLane="best" from="491628725#1-AddedOffRampEdge" id="veh68_25200" to="-479797283#1" type="veh_passenger"/>
    <trip depart="25261.95" departLane="best" from="224737854#2" id="veh69_25200" to="25931028#3" type="veh_passenger"/>
    <trip depart="25264.64" departLane="best" from="25931909" id="veh72_25200" to="481854591#1" type="veh_passenger"/>
    <trip depart="25265.54" departLane="best" from="-625413768#3" id="veh73_25200" to="1039159932#1" type="veh_passenger"/>
    <trip depart="25266.44" departLane="best" from="994962124#2" id="veh74_25200" to="479797239#0" type="veh_passenger"/>
    <trip depart="25268.23" departLane="best" from="-479621745#7" id="veh76_25200" to="1032262905#1" type="veh_passenger"/>
    <trip depart="25269.13" departLane="best" from="1041504065" id="veh77_25200" to="321071861#1" type="veh_passenger"/>
    <trip depart="25270.03" departLane="best" from="1032665742" id="veh78_25200" to="100646260#0" type="veh_passenger"/>
    <trip depart="25270.93" departLane="best" from="-248698668#8" id="veh79_25200" to="479621745#7" type="veh_passenger"/>
    <trip depart="25272.72" departLane="best" from="625413768#2" id="veh81_25200" to="-255416245#0" type="veh_passenger"/>
    <trip depart="25274.52" departLane="best" from="-994875416" id="veh83_25200" to="-479797308" type="veh_passenger"/>
    <trip depart="25275.42" departLane="best" from="742727484#1" id="veh84_25200" to="26234533#0" type="veh_passenger"/>
    <trip depart="25276.31" departLane="best" from="224737852#6" id="veh85_25200" to="538068606-AddedOffRampEdge" type="veh_passenger"/>
    <trip depart="25277.21" departLane="best" from="-320758120" id="veh86_25200" to="156148432#0" type="veh_passenger"/>
    <trip depart="25279.01" departLane="best" from="481854588#3" id="veh88_25200" to="479797313#0" type="veh_passenger"/>
    <trip depart="25280.8" departLane="best" from="156148407#0" id="veh90_25200" to="1041235840#1-AddedOffRampEdge" type="veh_passenger"/>
    <trip depart="25281.7" departLane="best" from="625413783#2" id="veh91_25200" to="1036062887" type="veh_passenger"/>
    <trip depart="25282.6" departLane="best" from="-61163715#2" id="veh92_25200" to="159455874#9" type="veh_passenger"/>
    <trip depart="25283.5" departLane="best" from="159453472#0" id="veh93_25200" to="1036341357#1" type="veh_passenger"/>
    <trip depart="25285.29" departLane="best" from="166563429#6" id="veh95_25200" to="625413766#0" type="veh_passenger"/>
    <trip depart="25287.09" departLane="best" from="996026061#1" id="veh97_25200" to="622873931#7" type="veh_passenger"/>
    <trip depart="25287.99" departLane="best" from="854001000#1" id="veh98_25200" to="742727471" type="veh_passenger"/>
    <trip depart="25289.78" departLane="best" from="235427270" id="veh100_25200" to="100646217#3" type="veh_passenger"/>
    <trip depart="25292.47" departLane="best" from="1036341358#1" id="veh103_25200" to="538068606-AddedOffRampEdge" type="veh_passenger"/>
    <trip depart="25293.37" departLane="best" from="178774217#1" id="veh104_25200" to="156148417" type="veh_passenger"/>
    <trip depart="25295.17" departLane="best" from="25934395#5" id="veh106_25200" to="480283416#1" type="veh_passenger"/>
    <trip depart="25296.07" departLane="best" from="-480250296#0" id="veh107_25200" to="1036360487#6" type="veh_passenger"/>
    <trip depart="25296.96" departLane="best" from="854001000#0" id="veh108_25200" to="320758120" type="veh_passenger"/>
    <trip depart="25297.86" departLane="best" from="25931909" id="veh109_25200" to="490192688#5" type="veh_passenger"/>
    <trip depart="25298.76" departLane="best" from="-234517427#4" id="veh110_25200" to="320758139" type="veh_passenger"/>
    <trip depart="25299.66" departLane="best" from="248698670#0" id="veh111_25200" to="623891500#1" type="veh_passenger"/>
    <trip depart="25300.55" departLane="best" from="-480250299#0" id="veh112_25200" to="774852739#1" type="veh_passenger"/>
    <trip depart="25302.35" departLane="best" from="323563821#1" id="veh114_25200" to="479797313#4" type="veh_passenger"/>
    <trip depart="25305.04" departLane="best" from="323563821#0" id="veh117_25200" to="475316658#1" type="veh_passenger"/>
    <trip depart="25305.94" departLane="best" from="159453449#8" id="veh118_25200" to="320758139" type="veh_passenger"/>
    <trip depart="25306.84" departLane="best" from="256157278#1" id="veh119_25200" to="742727484#3" type="veh_passenger"/>
    <trip depart="25307.74" departLane="best" from="-658095569#2" id="veh120_25200" to="480276562" type="veh_passenger"/>
    <trip depart="25308.63" departLane="best" from="1036060565" id="veh121_25200" to="1042716327" type="veh_passenger"/>
    <trip depart="25309.53" departLane="best" from="479797313#7" id="veh122_25200" to="1038266651" type="veh_passenger"/>
    <trip depart="25310.43" departLane="best" from="1040925852" id="veh123_25200" to="490213894-AddedOffRampEdge" type="veh_passenger"/>
    <trip depart="25311.33" departLane="best" from="-248698670#2" id="veh124_25200" to="166563426#3" type="veh_passenger"/>
    <trip depart="25312.23" departLane="best" from="-255416142#1" id="veh125_25200" to="100646208" type="veh_passenger"/>
    <trip depart="25313.12" departLane="best" from="1036341358#1" id="veh126_25200" to="742727484#0" type="veh_passenger"/>
    <trip depart="25314.02" departLane="best" from="1042693361#1" id="veh127_25200" to="-480282281#0" type="veh_passenger"/>
    <trip depart="25314.92" departLane="best" from="622873931#7" id="veh128_25200" to="480250293#0" type="veh_passenger"/>
    <trip depart="25315.82" departLane="best" from="475316653#6" id="veh129_25200" to="854052897#4" type="veh_passenger"/>
    <trip depart="25316.71" departLane="best" from="479797277#2" id="veh130_25200" to="-100646260#1" type="veh_passenger"/>
    <trip depart="25317.61" departLane="best" from="618364867#1" id="veh131_25200" to="1038110939" type="veh_passenger"/>
    <trip depart="25318.51" departLane="best" from="479797310#0" id="veh132_25200" to="765449926#0" type="veh_passenger"/>
    <trip depart="25320.31" departLane="best" from="-475316645#2" id="veh134_25200" to="25931028#5" type="veh_passenger"/>
    <trip depart="25323" departLane="best" from="479621763#12" id="veh137_25200" to="1036099956#3" type="veh_passenger"/>
    <trip depart="25323.9" departLane="best" from="235427743#0" id="veh138_25200" to="696730624" type="veh_passenger"/>
    <trip depart="25324.8" departLane="best" from="623474397#0" id="veh139_25200" to="-379986688#2" type="veh_passenger"/>
    <trip depart="25325.69" departLane="best" from="159453472#4" id="veh140_25200" to="1036341355" type="veh_passenger"/>
    <trip depart="25326.59" departLane="best" from="-100646242#1" id="veh141_25200" to="491632371#2" type="veh_passenger"/>
    <trip depart="25327.49" departLane="best" from="479621774#2" id="veh142_25200" to="1036099953" type="veh_passenger"/>
    <trip depart="25328.39" departLane="best" from="489606090" id="veh143_25200" to="25931028#4" type="veh_passenger"/>
    <trip depart="25329.28" departLane="best" from="159455874#4" id="veh144_25200" to="-100646264#0" type="veh_passenger"/>
    <trip depart="25330.18" departLane="best" from="-255416153" id="veh145_25200" to="665451330#1" type="veh_passenger"/>
    <trip depart="25331.98" departLane="best" from="622873934#0" id="veh147_25200" to="320758130#1" type="veh_passenger"/>
    <trip depart="25332.88" departLane="best" from="-479816722#1" id="veh148_25200" to="-479797258#5" type="veh_passenger"/>
    <trip depart="25333.77" departLane="best" from="1040260533" id="veh149_25200" to="684128578#2" type="veh_passenger"/>
    <trip depart="25334.67" departLane="best" from="583797089#8" id="veh150_25200" to="625413762#3" type="veh_passenger"/>
    <trip depart="25335.57" departLane="best" from="684128578#0" id="veh151_25200" to="-775380332#4" type="veh_passenger"/>
    <trip depart="25337.36" departLane="best" from="491638583#6" id="veh153_25200" to="665451330#2" type="veh_passenger"/>
    <trip depart="25338.26" departLane="best" from="156148419#1" id="veh154_25200" to="475319371#0" type="veh_passenger"/>
    <trip depart="25340.06" departLane="best" from="625418511" id="veh156_25200" to="854040750" type="veh_passenger"/>
    <trip depart="25343.65" departLane="best" from="61163710#13" id="veh160_25200" to="625413783#2" type="veh_passenger"/>
    <trip depart="25345.44" departLane="best" from="538068340#1" id="veh162_25200" to="-479613101#1" type="veh_passenger"/>
    <trip depart="25347.24" departLane="best" from="100646256#1" id="veh164_25200" to="618371794" type="veh_passenger"/>
    <trip depart="25348.14" departLane="best" from="216060954#1" id="veh165_25200" to="1039133060" type="veh_passenger"/>
    <trip depart="25349.04" departLane="best" from="583797089#7" id="veh166_25200" to="1032987570#1" type="veh_passenger"/>
    <trip depart="25349.93" departLane="best" from="-1042698679" id="veh167_25200" to="-622804129#0" type="veh_passenger"/>
    <trip depart="25350.83" departLane="best" from="1041235840#0" id="veh168_25200" to="625413783#3" type="veh_passenger"/>
    <trip depart="25351.73" departLane="best" from="479751865#1" id="veh169_25200" to="1042728028#1" type="veh_passenger"/>
    <trip depart="25352.63" departLane="best" from="854052892-AddedOffRampEdge" id="veh170_25200" to="255416223#1" type="veh_passenger"/>
    <trip depart="25353.52" departLane="best" from="764267604" id="veh171_25200" to="-479621752#0" type="veh_passenger"/>
    <trip depart="25354.42" departLane="best" from="854001002#1" id="veh172_25200" to="-490165001#1" type="veh_passenger"/>
    <trip depart="25355.32" departLane="best" from="775122579#1" id="veh173_25200" to="1036114082" type="veh_passenger"/>
    <trip depart="25356.22" departLane="best" from="-475316653#0" id="veh174_25200" to="159453447#8" type="veh_passenger"/>
    <trip depart="25357.12" departLane="best" from="481854585" id="veh175_25200" to="1039159937" type="veh_passenger"/>
    <trip depart="25358.91" departLane="best" from="123423117#1" id="veh177_25200" to="320755661#1" type="veh_passenger"/>
    <trip depart="25359.81" departLane="best" from="1036338535" id="veh178_25200" to="480250299#1" type="veh_passenger"/>
    <trip depart="25360.71" departLane="best" from="-100646220#2" id="veh179_25200" to="742727470" type="veh_passenger"/>
    <trip depart="25362.5" departLane="best" from="489606090" id="veh181_25200" to="479797310#7" type="veh_passenger"/>
    <trip depart="25363.4" departLane="best" from="1042449169#1" id="veh182_25200" to="-255416229#2" type="veh_passenger"/>
    <trip depart="25365.2" departLane="best" from="1040882903" id="veh184_25200" to="623138417" type="veh_passenger"/>
    <trip depart="25366.09" departLane="best" from="480284576#1" id="veh185_25200" to="1038324580" type="veh_passenger"/>
    <trip depart="25366.99" departLane="best" from="1040591005" id="veh186_25200" to="145126347" type="veh_passenger"/>
    <trip depart="25367.89" departLane="best" from="156148404#3" id="veh187_25200" to="1036360487#5" type="veh_passenger"/>
    <trip depart="25368.79" departLane="best" from="-479621763#5" id="veh188_25200" to="156148404#2" type="veh_passenger"/>
    <trip depart="25369.69" departLane="best" from="764267605" id="veh189_25200" to="479797318#0" type="veh_passenger"/>
    <trip depart="25371.48" departLane="best" from="1039159935" id="veh191_25200" to="25931028#2" type="veh_passenger"/>
    <trip depart="25372.38" departLane="best" from="-100646217#0" id="veh192_25200" to="1036342983" type="veh_passenger"/>
    <trip depart="25373.28" departLane="best" from="159455874#8" id="veh193_25200" to="320758122#1" type="veh_passenger"/>
    <trip depart="25375.07" departLane="best" from="166563429#4" id="veh195_25200" to="100646217#3" type="veh_passenger"/>
    <trip depart="25375.97" departLane="best" from="224737854#0" id="veh196_25200" to="684135634#2" type="veh_passenger"/>
    <trip depart="25376.87" departLane="best" from="583797089#8" id="veh197_25200" to="-483726628#0" type="veh_passenger"/>
    <trip depart="25378.66" departLane="best" from="479621758#4" id="veh199_25200" to="1041187875" type="veh_passenger"/>
    <trip depart="25380.46" departLane="best" from="479797318#4" id="veh201_25200" to="1032262905#1" type="veh_passenger"/>
    <trip depart="25381.36" departLane="best" from="-623891515#1" id="veh202_25200" to="-159455892#4" type="veh_passenger"/>
    <trip depart="25383.15" departLane="best" from="623474399#3" id="veh204_25200" to="-255416251#2" type="veh_passenger"/>
    <trip depart="25384.05" departLane="best" from="159453447#12" id="veh205_25200" to="479621745#2" type="veh_passenger"/>
    <trip depart="25384.95" departLane="best" from="-622873929#0" id="veh206_25200" to="479816723#0" type="veh_passenger"/>
    <trip depart="25385.85" departLane="best" from="245763347#0" id="veh207_25200" to="1036052086#2" type="veh_passenger"/>
    <trip depart="25386.74" departLane="best" from="479797279" id="veh208_25200" to="-100646248#2" type="veh_passenger"/>
    <trip depart="25388.54" departLane="best" from="-475316645#2" id="veh210_25200" to="156148419#2" type="veh_passenger"/>
    <trip depart="25389.44" departLane="best" from="-483796488#0" id="veh211_25200" to="773876919#3" type="veh_passenger"/>
    <trip depart="25392.13" departLane="best" from="178774219#2" id="veh214_25200" to="61163710#1" type="veh_passenger"/>
    <trip depart="25393.93" departLane="best" from="323563821#2" id="veh216_25200" to="773159596#1" type="veh_passenger"/>
    <trip depart="25394.82" departLane="best" from="665453544" id="veh217_25200" to="47070283#3" type="veh_passenger"/>
    <trip depart="25395.72" departLane="best" from="480284575" id="veh218_25200" to="235424958#4" type="veh_passenger"/>
    <trip depart="25396.62" departLane="best" from="622873931#0" id="veh219_25200" to="25931028#2" type="veh_passenger"/>
    <trip depart="25397.52" departLane="best" from="665453553" id="veh220_25200" to="489629072#3" type="veh_passenger"/>
    <trip depart="25399.31" departLane="best" from="1036079534" id="veh222_25200" to="479621758#3" type="veh_passenger"/>
    <trip depart="25402.01" departLane="best" from="-255416209#0" id="veh225_25200" to="1036342983" type="veh_passenger"/>
    <trip depart="25403.8" departLane="best" from="25931909" id="veh227_25200" to="-479797345#1" type="veh_passenger"/>
    <trip depart="25406.5" departLane="best" from="156148419#4" id="veh230_25200" to="256157279" type="veh_passenger"/>
    <trip depart="25409.19" departLane="best" from="321073225#1" id="veh233_25200" to="479816717#0" type="veh_passenger"/>
    <trip depart="25410.09" departLane="best" from="625397297" id="veh234_25200" to="491628727#0" type="veh_passenger"/>
    <trip depart="25410.98" departLane="best" from="1042716324" id="veh235_25200" to="-100646252#0" type="veh_passenger"/>
    <trip depart="25411.88" departLane="best" from="1041544550#0" id="veh236_25200" to="490216931#1" type="veh_passenger"/>
    <trip depart="25412.78" departLane="best" from="623891513" id="veh237_25200" to="773159597#3" type="veh_passenger"/>
    <trip depart="25413.68" departLane="best" from="159453449#7" id="veh238_25200" to="490192688#3-AddedOnRampEdge" type="veh_passenger"/>
    <trip depart="25414.58" departLane="best" from="25931950-AddedOffRampEdge" id="veh239_25200" to="321073948" type="veh_passenger"/>
    <trip depart="25416.37" departLane="best" from="1041504064" id="veh241_25200" to="479797321" type="veh_passenger"/>
    <trip depart="25418.17" departLane="best" from="224737849#3" id="veh243_25200" to="-479797258#6" type="veh_passenger"/>
    <trip depart="25419.96" departLane="best" from="156148397#3" id="veh245_25200" to="25934381#0" type="veh_passenger"/>
    <trip depart="25420.86" departLane="best" from="-156148407#1" id="veh246_25200" to="479751358#0" type="veh_passenger"/>
    <trip depart="25421.76" departLane="best" from="-479797279" id="veh247_25200" to="166563429#5" type="veh_passenger"/>
    <trip depart="25422.66" departLane="best" from="-216060954#0" id="veh248_25200" to="1042449170" type="veh_passenger"/>
    <trip depart="25423.55" departLane="best" from="490718877#0" id="veh249_25200" to="1042449170" type="veh_passenger"/>
    <trip depart="25425.35" departLane="best" from="1036313338" id="veh251_25200" to="-25934385#0" type="veh_passenger"/>
    <trip depart="25426.25" departLane="best" from="-1039220886" id="veh252_25200" to="255416245#1" type="veh_passenger"/>
    <trip depart="25427.15" departLane="best" from="479797258#5" id="veh253_25200" to="538068339#5" type="veh_passenger"/>
    <trip depart="25428.04" departLane="best" from="479797271" id="veh254_25200" to="490216934#0" type="veh_passenger"/>
    <trip depart="25428.94" departLane="best" from="773159597#1" id="veh255_25200" to="-623891512" type="veh_passenger"/>
    <trip depart="25430.74" departLane="best" from="-479621763#11" id="veh257_25200" to="479797310#2" type="veh_passenger"/>
    <trip depart="25431.63" departLane="best" from="267535712" id="veh258_25200" to="100646248#1" type="veh_passenger"/>
    <trip depart="25432.53" departLane="best" from="480250287#2" id="veh259_25200" to="491628727#1" type="veh_passenger"/>
    <trip depart="25433.43" departLane="best" from="-480284570" id="veh260_25200" to="379986688#5" type="veh_passenger"/>
    <trip depart="25434.33" departLane="best" from="490165001#0" id="veh261_25200" to="-479621751#0" type="veh_passenger"/>
    <trip depart="25436.12" departLane="best" from="-475316652#3" id="veh263_25200" to="-159457890#2" type="veh_passenger"/>
    <trip depart="25437.02" departLane="best" from="1040882902#0" id="veh264_25200" to="479797318#0" type="veh_passenger"/>
    <trip depart="25437.92" departLane="best" from="774852739#0" id="veh265_25200" to="1042716327" type="veh_passenger"/>
    <trip depart="25439.71" departLane="best" from="479812143#3" id="veh267_25200" to="479613108#1" type="veh_passenger"/>
    <trip depart="25441.51" departLane="best" from="623891500#1" id="veh269_25200" to="321073251" type="veh_passenger"/>
    <trip depart="25442.41" departLane="best" from="491638590#0" id="veh270_25200" to="1041521601" type="veh_passenger"/>
    <trip depart="25443.31" departLane="best" from="159455874#5" id="veh271_25200" to="1042334799" type="veh_passenger"/>
    <trip depart="25444.2" departLane="best" from="248698674#2" id="veh272_25200" to="1041286369" type="veh_passenger"/>
    <trip depart="25446" departLane="best" from="-475316645#0" id="veh274_25200" to="774852739#1" type="veh_passenger"/>
    <trip depart="25446.9" departLane="best" from="479621763#6" id="veh275_25200" to="622804124#1" type="veh_passenger"/>
    <trip depart="25448.69" departLane="best" from="483726628#1" id="veh277_25200" to="775380332#4" type="veh_passenger"/>
    <trip depart="25449.59" departLane="best" from="1036341364#0" id="veh278_25200" to="61163785#3" type="veh_passenger"/>
    <trip depart="25450.49" departLane="best" from="25931907" id="veh279_25200" to="216060954#3" type="veh_passenger"/>
    <trip depart="25451.39" departLane="best" from="159455892#3" id="veh280_25200" to="481854596#2" type="veh_passenger"/>
    <trip depart="25452.28" departLane="best" from="1036341362#1" id="veh281_25200" to="623474399#2" type="veh_passenger"/>
    <trip depart="25453.18" departLane="best" from="622873931#0" id="veh282_25200" to="-320755658#2" type="veh_passenger"/>
    <trip depart="25454.08" departLane="best" from="665451328#4" id="veh283_25200" to="1036052086#2" type="veh_passenger"/>
    <trip depart="25454.98" departLane="best" from="216065940#2" id="veh284_25200" to="390383583#0" type="veh_passenger"/>
    <trip depart="25457.67" departLane="best" from="-856908280" id="veh287_25200" to="584750383#1" type="veh_passenger"/>
    <trip depart="25459.47" departLane="best" from="480250295#0" id="veh289_25200" to="1036341355" type="veh_passenger"/>
    <trip depart="25461.26" departLane="best" from="-256157283#0" id="veh291_25200" to="480284575" type="veh_passenger"/>
    <trip depart="25462.16" departLane="best" from="235427743#0" id="veh292_25200" to="491628725#0" type="veh_passenger"/>
    <trip depart="25463.06" departLane="best" from="479812143#3" id="veh293_25200" to="479751374#1" type="veh_passenger"/>
    <trip depart="25463.96" departLane="best" from="235436489#0" id="veh294_25200" to="583797089#2" type="veh_passenger"/>
    <trip depart="25464.85" departLane="best" from="-25934395#4" id="veh295_25200" to="100646269#0" type="veh_passenger"/>
    <trip depart="25465.75" departLane="best" from="479812147#0" id="veh296_25200" to="1039133060" type="veh_passenger"/>
    <trip depart="25467.55" departLane="best" from="25931028#4" id="veh298_25200" to="156148419#3" type="veh_passenger"/>
    <trip depart="25468.44" departLane="best" from="489924065" id="veh299_25200" to="1040929341" type="veh_passenger"/>
    <trip depart="25469.34" departLane="best" from="480250296#2" id="veh300_25200" to="1036341350#3" type="veh_passenger"/>
    <trip depart="25470.24" departLane="best" from="1036114082" id="veh301_25200" to="-479621763#9" type="veh_passenger"/>
    <trip depart="25471.14" departLane="best" from="-61163785#3" id="veh302_25200" to="-479621763#5" type="veh_passenger"/>
    <trip depart="25472.04" departLane="best" from="25931033" id="veh303_25200" to="491628725#3" type="veh_passenger"/>
    <trip depart="25472.93" departLane="best" from="-491638583#3" id="veh304_25200" to="100646242#1" type="veh_passenger"/>
    <trip depart="25475.63" departLane="best" from="1036360487#6" id="veh307_25200" to="-475316653#0" type="veh_passenger"/>
    <trip depart="25476.52" departLane="best" from="-622805764#1" id="veh308_25200" to="1032987570#1" type="veh_passenger"/>
    <trip depart="25479.22" departLane="best" from="854040751" id="veh311_25200" to="25931028#5" type="veh_passenger"/>
    <trip depart="25480.12" departLane="best" from="479816723#2" id="veh312_25200" to="-479797258#1" type="veh_passenger"/>
    <trip depart="25481.91" departLane="best" from="658130902" id="veh314_25200" to="26234533#2" type="veh_passenger"/>
    <trip depart="25482.81" departLane="best" from="224737850#2" id="veh315_25200" to="159453472#0" type="veh_passenger"/>
    <trip depart="25483.71" departLane="best" from="-490718877#2" id="veh316_25200" to="-248698662" type="veh_passenger"/>
    <trip depart="25485.5" departLane="best" from="618371797" id="veh318_25200" to="1046628053" type="veh_passenger"/>
    <trip depart="25486.4" departLane="best" from="-255416142#4" id="veh319_25200" to="479621745#1" type="veh_passenger"/>
    <trip depart="25488.2" departLane="best" from="267535712" id="veh321_25200" to="1039133060" type="veh_passenger"/>
    <trip depart="25489.09" departLane="best" from="994962121#3" id="veh322_25200" to="-479621763#11" type="veh_passenger"/>
    <trip depart="25489.99" departLane="best" from="491628725#1" id="veh323_25200" to="379986688#1" type="veh_passenger"/>
    <trip depart="25491.79" departLane="best" from="256157278#0" id="veh325_25200" to="159455875#2" type="veh_passenger"/>
    <trip depart="25492.69" departLane="best" from="166563429#5" id="veh326_25200" to="625413762#1" type="veh_passenger"/>
    <trip depart="25493.58" departLane="best" from="901285521" id="veh327_25200" to="1039133060" type="veh_passenger"/>
    <trip depart="25494.48" departLane="best" from="479621743#1" id="veh328_25200" to="379986768" type="veh_passenger"/>
    <trip depart="25495.38" departLane="best" from="489606084-AddedOnRampEdge" id="veh329_25200" to="765467137" type="veh_passenger"/>
    <trip depart="25496.28" departLane="best" from="-665451328#7" id="veh330_25200" to="-775599627#0" type="veh_passenger"/>
    <trip depart="25497.17" departLane="best" from="479797300#0" id="veh331_25200" to="-480282280" type="veh_passenger"/>
    <trip depart="25498.07" departLane="best" from="-480475790#0" id="veh332_25200" to="-256157278#0" type="veh_passenger"/>
    <trip depart="25498.97" departLane="best" from="-100646234" id="veh333_25200" to="159455875#2" type="veh_passenger"/>