<routes>
    <vType id="veh_passenger" vClass="passenger"/>
    <trip depart="28800" departLane="best" from="479751369#4" id="veh0_28800" to="-159455892#6" type="veh_passenger"/>
    <trip depart="28800.9" departLane="best" from="1036346145" id="veh1_28800" to="100646295#1" type="veh_passenger"/>
    <trip depart="28801.8" departLane="best" from="486825027#0" id="veh2_28800" to="479797313#7" type="veh_passenger"/>
    <trip depart="28802.69" departLane="best" from="665453544" id="veh3_28800" to="-320755659#0" type="veh_passenger"/>
    <trip depart="28804.49" departLane="best" from="100646220#1" id="veh5_28800" to="235424958#4" type="veh_passenger"/>
    <trip depart="28805.39" departLane="best" from="-155033028#1" id="veh6_28800" to="-623891502#0" type="veh_passenger"/>
    <trip depart="28806.28" departLane="best" from="479797258#4" id="veh7_28800" to="25931028#0" type="veh_passenger"/>
    <trip depart="28807.18" departLane="best" from="100646245#3" id="veh8_28800" to="321071861#2" type="veh_passenger"/>
    <trip depart="28808.98" departLane="best" from="1041521602" id="veh10_28800" to="-480276564" type="veh_passenger"/>
    <trip depart="28809.88" departLane="best" from="773876919#5" id="veh11_28800" to="1041187875-AddedOnRampEdge" type="veh_passenger"/>
    <trip depart="28811.67" departLane="best" from="623474397#3" id="veh13_28800" to="321073948" type="veh_passenger"/>
    <trip depart="28812.57" departLane="best" from="61163715#4" id="veh14_28800" to="481854591#1" type="veh_passenger"/>
    <trip depart="28813.47" departLane="best" from="25931033" id="veh15_28800" to="854001005#0" type="veh_passenger"/>
    <trip depart="28815.26" departLane="best" from="622809059#0" id="veh17_28800" to="475316653#4" type="veh_passenger"/>
    <trip depart="28816.16" departLane="best" from="625413783#2" id="veh18_28800" to="320755665" type="veh_passenger"/>
    <trip depart="28819.75" departLane="best" from="-379986746#0" id="veh22_28800" to="1036341357#0" type="veh_passenger"/>
    <trip depart="28821.55" departLane="best" from="1042693362#0" id="veh24_28800" to="-775380332#0" type="veh_passenger"/>
    <trip depart="28822.45" departLane="best" from="1036341360#1" id="veh25_28800" to="743386900" type="veh_passenger"/>
    <trip depart="28823.34" departLane="best" from="479797253#1" id="veh26_28800" to="379986751" type="veh_passenger"/>
    <trip depart="28825.14" departLane="best" from="-480252897#2" id="veh28_28800" to="1042449170" type="veh_passenger"/>
    <trip depart="28826.04" departLane="best" from="901285519#0" id="veh29_28800" to="479621763#4" type="veh_passenger"/>
    <trip depart="28827.83" departLane="best" from="623128861" id="veh31_28800" to="491638585" type="veh_passenger"/>
    <trip depart="28830.53" departLane="best" from="-775380332#5" id="veh34_28800" to="765449928" type="veh_passenger"/>
    <trip depart="28832.32" departLane="best" from="479797277#5" id="veh36_28800" to="1042716326" type="veh_passenger"/>
    <trip depart="28833.22" departLane="best" from="742718528#2" id="veh37_28800" to="166563426#4" type="veh_passenger"/>
    <trip depart="28834.12" departLane="best" from="1036341358#0" id="veh38_28800" to="1036060565" type="veh_passenger"/>
    <trip depart="28835.01" departLane="best" from="26234656#0" id="veh39_28800" to="1036099955" type="veh_passenger"/>
    <trip depart="28835.91" departLane="best" from="321073225#2" id="veh40_28800" to="684128578#0" type="veh_passenger"/>
    <trip depart="28836.81" departLane="best" from="156148402#2" id="veh41_28800" to="100646256#0" type="veh_passenger"/>
    <trip depart="28837.71" departLane="best" from="994962124#6" id="veh42_28800" to="235424974#1" type="veh_passenger"/>
    <trip depart="28839.5" departLane="best" from="-475316653#5" id="veh44_28800" to="479613108#2" type="veh_passenger"/>
    <trip depart="28840.4" departLane="best" from="583797089#1" id="veh45_28800" to="156148413#0" type="veh_passenger"/>
    <trip depart="28841.3" departLane="best" from="-248698662" id="veh46_28800" to="1042676039" type="veh_passenger"/>
    <trip depart="28842.2" departLane="best" from="994962124#3" id="veh47_28800" to="248698674#2" type="veh_passenger"/>
    <trip depart="28843.09" departLane="best" from="854001005#0" id="veh48_28800" to="625413762#3" type="veh_passenger"/>
    <trip depart="28843.99" departLane="best" from="-1036047409#0" id="veh49_28800" to="480284576#2" type="veh_passenger"/>
    <trip depart="28844.89" departLane="best" from="479797341#1-AddedOnRampEdge" id="veh50_28800" to="255416224#2" type="veh_passenger"/>
    <trip depart="28845.79" departLane="best" from="1036341360#0" id="veh51_28800" to="479621763#7" type="veh_passenger"/>
    <trip depart="28846.69" departLane="best" from="-475319370" id="veh52_28800" to="159453447#8" type="veh_passenger"/>
    <trip depart="28847.58" departLane="best" from="178774212#0" id="veh53_28800" to="773159597#3" type="veh_passenger"/>
    <trip depart="28849.38" departLane="best" from="248698668#12" id="veh55_28800" to="-490165001#1" type="veh_passenger"/>
    <trip depart="28851.17" departLane="best" from="1039159932#1" id="veh57_28800" to="479621763#11" type="veh_passenger"/>
    <trip depart="28852.97" departLane="best" from="491462355" id="veh59_28800" to="255416245#1" type="veh_passenger"/>
    <trip depart="28853.87" departLane="best" from="491638583#0" id="veh60_28800" to="255416142#2" type="veh_passenger"/>
    <trip depart="28854.77" departLane="best" from="-100646217#1" id="veh61_28800" to="1040911960" type="veh_passenger"/>
    <trip depart="28859.26" departLane="best" from="-256157283#0" id="veh66_28800" to="216065938#0" type="veh_passenger"/>
    <trip depart="28860.15" departLane="best" from="-248698668#10" id="veh67_28800" to="491628725#1-AddedOffRampEdge" type="veh_passenger"/>
    <trip depart="28861.05" departLane="best" from="491628725#1-AddedOffRampEdge" id="veh68_28800" to="-479797283#1" type="veh_passenger"/>
    <trip depart="28861.95" departLane="best" from="224737854#2" id="veh69_28800" to="25931028#3" type="veh_passenger"/>
    <trip depart="28864.64" departLane="best" from="25931909" id="veh72_28800" to="481854591#1" type="veh_passenger"/>
    <trip depart="28865.54" departLane="best" from="-625413768#3" id="veh73_28800" to="1039159932#1" type="veh_passenger"/>
    <trip depart="28866.44" departLane="best" from="994962124#2" id="veh74_28800" to="479797239#0" type="veh_passenger"/>
    <trip depart="28868.23" departLane="best" from="-479621745#7" id="veh76_28800" to="1032262905#1" type="veh_passenger"/>
    <trip depart="28869.13" departLane="best" from="1041504065" id="veh77_28800" to="321071861#1" type="veh_passenger"/>
    <trip depart="28870.03" departLane="best" from="1032665742" id="veh78_28800" to="100646260#0" type="veh_passenger"/>
    <trip depart="28870.93" departLane="best" from="-248698668#8" id="veh79_28800" to="479621745#7" type="veh_passenger"/>
    <trip depart="28872.72" departLane="best" from="625413768#2" id="veh81_28800" to="-255416245#0" type="veh_passenger"/>
    <trip depart="28874.52" departLane="best" from="-994875416" id="veh83_28800" to="-479797308" type="veh_passenger"/>
    <trip depart="28875.42" departLane="best" from="742727484#1" id="veh84_28800" to="26234533#0" type="veh_passenger"/>
    <trip depart="28876.31" departLane="best" from="224737852#6" id="veh85_28800" to="538068606-AddedOffRampEdge" type="veh_passenger"/>
    <trip depart="28877.21" departLane="best" from="-320758120" id="veh86_28800" to="156148432#0" type="veh_passenger"/>
    <trip depart="28879.01" departLane="best" from="481854588#3" id="veh88_28800" to="479797313#0" type="veh_passenger"/>
    <trip depart="28880.8" departLane="best" from="156148407#0" id="veh90_28800" to="1041235840#1-AddedOffRampEdge" type="veh_passenger"/>
    <trip depart="28881.7" departLane="best" from="625413783#2" id="veh91_28800" to="1036062887" type="veh_passenger"/>
    <trip depart="28882.6" departLane="best" from="-61163715#2" id="veh92_28800" to="159455874#9" type="veh_passenger"/>
    <trip depart="28883.5" departLane="best" from="159453472#0" id="veh93_28800" to="1036341357#1" type="veh_passenger"/>
    <trip depart="28885.29" departLane="best" from="166563429#6" id="veh95_28800" to="625413766#0" type="veh_passenger"/>
    <trip depart="28887.09" departLane="best" from="996026061#1" id="veh97_28800" to="622873931#7" type="veh_passenger"/>
    <trip depart="28887.99" departLane="best" from="854001000#1" id="veh98_28800" to="742727471" type="veh_passenger"/>
    <trip depart="28889.78" departLane="best" from="235427270" id="veh100_28800" to="100646217#3" type="veh_passenger"/>
    <trip depart="28892.47" departLane="best" from="1036341358#1" id="veh103_28800" to="538068606-AddedOffRampEdge" type="veh_passenger"/>
    <trip depart="28893.37" departLane="best" from="178774217#1" id="veh104_28800" to="156148417" type="veh_passenger"/>
    <trip depart="28895.17" departLane="best" from="25934395#5" id="veh106_28800" to="480283416#1" type="veh_passenger"/>
    <trip depart="28896.07" departLane="best" from="-480250296#0" id="veh107_28800" to="1036360487#6" type="veh_passenger"/>
    <trip depart="28896.96" departLane="best" from="854001000#0" id="veh108_28800" to="320758120" type="veh_passenger"/>
    <trip depart="28897.86" departLane="best" from="25931909" id="veh109_28800" to="490192688#5" type="veh_passenger"/>
    <trip depart="28898.76" departLane="best" from="-234517427#4" id="veh110_28800" to="320758139" type="veh_passenger"/>
    <trip depart="28899.66" departLane="best" from="248698670#0" id="veh111_28800" to="623891500#1" type="veh_passenger"/>
    <trip depart="28900.55" departLane="best" from="-480250299#0" id="veh112_28800" to="774852739#1" type="veh_passenger"/>
    <trip depart="28902.35" departLane="best" from="323563821#1" id="veh114_28800" to="479797313#4" type="veh_passenger"/>
    <trip depart="28905.04" departLane="best" from="323563821#0" id="veh117_28800" to="475316658#1" type="veh_passenger"/>
    <trip depart="28905.94" departLane="best" from="159453449#8" id="veh118_28800" to="320758139" type="veh_passenger"/>
    <trip depart="28906.84" departLane="best" from="256157278#1" id="veh119_28800" to="742727484#3" type="veh_passenger"/>
    <trip depart="28907.74" departLane="best" from="-658095569#2" id="veh120_28800" to="480276562" type="veh_passenger"/>
    <trip depart="28908.63" departLane="best" from="1036060565" id="veh121_28800" to="1042716327" type="veh_passenger"/>
    <trip depart="28909.53" departLane="best" from="479797313#7" id="veh122_28800" to="1038266651" type="veh_passenger"/>
    <trip depart="28910.43" departLane="best" from="1040925852" id="veh123_28800" to="490213894-AddedOffRampEdge" type="veh_passenger"/>
    <trip depart="28911.33" departLane="best" from="-248698670#2" id="veh124_28800" to="166563426#3" type="veh_passenger"/>
    <trip depart="28912.23" departLane="best" from="-255416142#1" id="veh125_28800" to="100646208" type="veh_passenger"/>
    <trip depart="28913.12" departLane="best" from="1036341358#1" id="veh126_28800" to="742727484#0" type="veh_passenger"/>
    <trip depart="28914.02" departLane="best" from="1042693361#1" id="veh127_28800" to="-480282281#0" type="veh_passenger"/>
    <trip depart="28914.92" departLane="best" from="622873931#7" id="veh128_28800" to="480250293#0" type="veh_passenger"/>
    <trip depart="28915.82" departLane="best" from="475316653#6" id="veh129_28800" to="854052897#4" type="veh_passenger"/>
    <trip depart="28916.71" departLane="best" from="479797277#2" id="veh130_28800" to="-100646260#1" type="veh_passenger"/>
    <trip depart="28917.61" departLane="best" from="618364867#1" id="veh131_28800" to="1038110939" type="veh_passenger"/>
    <trip depart="28918.51" departLane="best" from="479797310#0" id="veh132_28800" to="765449926#0" type="veh_passenger"/>
    <trip depart="28920.31" departLane="best" from="-475316645#2" id="veh134_28800" to="25931028#5" type="veh_passenger"/>
    <trip depart="28923" departLane="best" from="479621763#12" id="veh137_28800" to="1036099956#3" type="veh_passenger"/>
    <trip depart="28923.9" departLane="best" from="235427743#0" id="veh138_28800" to="696730624" type="veh_passenger"/>
    <trip depart="28924.8" departLane="best" from="623474397#0" id="veh139_28800" to="-379986688#2" type="veh_passenger"/>
    <trip depart="28925.69" departLane="best" from="159453472#4" id="veh140_28800" to="1036341355" type="veh_passenger"/>
    <trip depart="28926.59" departLane="best" from="-100646242#1" id="veh141_28800" to="491632371#2" type="veh_passenger"/>
    <trip depart="28927.49" departLane="best" from="479621774#2" id="veh142_28800" to="1036099953" type="veh_passenger"/>
    <trip depart="28928.39" departLane="best" from="489606090" id="veh143_28800" to="25931028#4" type="veh_passenger"/>
    <trip depart="28929.28" departLane="best" from="159455874#4" id="veh144_28800" to="-100646264#0" type="veh_passenger"/>
    <trip depart="28930.18" departLane="best" from="-255416153" id="veh145_28800" to="665451330#1" type="veh_passenger"/>
    <trip depart="28931.98" departLane="best" from="622873934#0" id="veh147_28800" to="320758130#1" type="veh_passenger"/>
    <trip depart="28932.88" departLane="best" from="-479816722#1" id="veh148_28800" to="-479797258#5" type="veh_passenger"/>
    <trip depart="28933.77" departLane="best" from="1040260533" id="veh149_28800" to="684128578#2" type="veh_passenger"/>
    <trip depart="28934.67" departLane="best" from="583797089#8" id="veh150_28800" to="625413762#3" type="veh_passenger"/>
    <trip depart="28935.57" departLane="best" from="684128578#0" id="veh151_28800" to="-775380332#4" type="veh_passenger"/>
    <trip depart="28937.36" departLane="best" from="491638583#6" id="veh153_28800" to="665451330#2" type="veh_passenger"/>
    <trip depart="28938.26" departLane="best" from="156148419#1" id="veh154_28800" to="475319371#0" type="veh_passenger"/>
    <trip depart="28940.06" departLane="best" from="625418511" id="veh156_28800" to="854040750" type="veh_passenger"/>
    <trip depart="28943.65" departLane="best" from="61163710#13" id="veh160_28800" to="625413783#2" type="veh_passenger"/>
    <trip depart="28945.44" departLane="best" from="538068340#1" id="veh162_28800" to="-479613101#1" type="veh_passenger"/>
    <trip depart="28947.24" departLane="best" from="100646256#1" id="veh164_28800" to="618371794" type="veh_passenger"/>
    <trip depart="28948.14" departLane="best" from="216060954#1" id="veh165_28800" to="1039133060" type="veh_passenger"/>
    <trip depart="28949.04" departLane="best" from="583797089#7" id="veh166_28800" to="1032987570#1" type="veh_passenger"/>
    <trip depart="28949.93" departLane="best" from="-1042698679" id="veh167_28800" to="-622804129#0" type="veh_passenger"/>
    <trip depart="28950.83" departLane="best" from="1041235840#0" id="veh168_28800" to="625413783#3" type="veh_passenger"/>
    <trip depart="28951.73" departLane="best" from="479751865#1" id="veh169_28800" to="1042728028#1" type="veh_passenger"/>
    <trip depart="28952.63" departLane="best" from="854052892-AddedOffRampEdge" id="veh170_28800" to="255416223#1" type="veh_passenger"/>
    <trip depart="28953.52" departLane="best" from="764267604" id="veh171_28800" to="-479621752#0" type="veh_passenger"/>
    <trip depart="28954.42" departLane="best" from="854001002#1" id="veh172_28800" to="-490165001#1" type="veh_passenger"/>
    <trip depart="28955.32" departLane="best" from="775122579#1" id="veh173_28800" to="1036114082" type="veh_passenger"/>
    <trip depart="28956.22" departLane="best" from="-475316653#0" id="veh174_28800" to="159453447#8" type="veh_passenger"/>
    <trip depart="28957.12" departLane="best" from="481854585" id="veh175_28800" to="1039159937" type="veh_passenger"/>
    <trip depart="28958.91" departLane="best" from="123423117#1" id="veh177_28800" to="320755661#1" type="veh_passenger"/>
    <trip depart="28959.81" departLane="best" from="1036338535" id="veh178_28800" to="480250299#1" type="veh_passenger"/>
    <trip depart="28960.71" departLane="best" from="-100646220#2" id="veh179_28800" to="742727470" type="veh_passenger"/>
    <trip depart="28962.5" departLane="best" from="489606090" id="veh181_28800" to="479797310#7" type="veh_passenger"/>
    <trip depart="28963.4" departLane="best" from="1042449169#1" id="veh182_28800" to="-255416229#2" type="veh_passenger"/>
    <trip depart="28965.2" departLane="best" from="1040882903" id="veh184_28800" to="623138417" type="veh_passenger"/>
    <trip depart="28966.09" departLane="best" from="480284576#1" id="veh185_28800" to="1038324580" type="veh_passenger"/>
    <trip depart="28966.99" departLane="best" from="1040591005" id="veh186_28800" to="145126347" type="veh_passenger"/>
    <trip depart="28967.89" departLane="best" from="156148404#3" id="veh187_28800" to="1036360487#5" type="veh_passenger"/>
    <trip depart="28968.79" departLane="best" from="-479621763#5" id="veh188_28800" to="156148404#2" type="veh_passenger"/>
    <trip depart="28969.69" departLane="best" from="764267605" id="veh189_28800" to="479797318#0" type="veh_passenger"/>
    <trip depart="28971.48" departLane="best" from="1039159935" id="veh191_28800" to="25931028#2" type="veh_passenger"/>
    <trip depart="28972.38" departLane="best" from="-100646217#0" id="veh192_28800" to="1036342983" type="veh_passenger"/>
    <trip depart="28973.28" departLane="best" from="159455874#8" id="veh193_28800" to="320758122#1" type="veh_passenger"/>
    <trip depart="28975.07" departLane="best" from="166563429#4" id="veh195_28800" to="100646217#3" type="veh_passenger"/>
    <trip depart="28975.97" departLane="best" from="224737854#0" id="veh196_28800" to="684135634#2" type="veh_passenger"/>
    <trip depart="28976.87" departLane="best" from="583797089#8" id="veh197_28800" to="-483726628#0" type="veh_passenger"/>
    <trip depart="28978.66" departLane="best" from="479621758#4" id="veh199_28800" to="1041187875" type="veh_passenger"/>
    <trip depart="28980.46" departLane="best" from="479797318#4" id="veh201_28800" to="1032262905#1" type="veh_passenger"/>
    <trip depart="28981.36" departLane="best" from="-623891515#1" id="veh202_28800" to="-159455892#4" type="veh_passenger"/>
    <trip depart="28983.15" departLane="best" from="623474399#3" id="veh204_28800" to="-255416251#2" type="veh_passenger"/>
    <trip depart="28984.05" departLane="best" from="159453447#12" id="veh205_28800" to="479621745#2" type="veh_passenger"/>
    <trip depart="28984.95" departLane="best" from="-622873929#0" id="veh206_28800" to="479816723#0" type="veh_passenger"/>
    <trip depart="28985.85" departLane="best" from="245763347#0" id="veh207_28800" to="1036052086#2" type="veh_passenger"/>
    <trip depart="28986.74" departLane="best" from="479797279" id="veh208_28800" to="-100646248#2" type="veh_passenger"/>
    <trip depart="28988.54" departLane="best" from="-475316645#2" id="veh210_28800" to="156148419#2" type="veh_passenger"/>
    <trip depart="28989.44" departLane="best" from="-483796488#0" id="veh211_28800" to="773876919#3" type="veh_passenger"/>
    <trip depart="28992.13" departLane="best" from="178774219#2" id="veh214_28800" to="61163710#1" type="veh_passenger"/>
    <trip depart="28993.93" departLane="best" from="323563821#2" id="veh216_28800" to="773159596#1" type="veh_passenger"/>
    <trip depart="28994.82" departLane="best" from="665453544" id="veh217_28800" to="47070283#3" type="veh_passenger"/>
    <trip depart="28995.72" departLane="best" from="480284575" id="veh218_28800" to="235424958#4" type="veh_passenger"/>
    <trip depart="28996.62" departLane="best" from="622873931#0" id="veh219_28800" to="25931028#2" type="veh_passenger"/>
    <trip depart="28997.52" departLane="best" from="665453553" id="veh220_28800" to="489629072#3" type="veh_passenger"/>
    <trip depart="28999.31" departLane="best" from="1036079534" id="veh222_28800" to="479621758#3" type="veh_passenger"/>
    <trip depart="29002.01" departLane="best" from="-255416209#0" id="veh225_28800" to="1036342983" type="veh_passenger"/>
    <trip depart="29003.8" departLane="best" from="25931909" id="veh227_28800" to="-479797345#1" type="veh_passenger"/>
    <trip depart="29006.5" departLane="best" from="156148419#4" id="veh230_28800" to="256157279" type="veh_passenger"/>
    <trip depart="29009.19" departLane="best" from="321073225#1" id="veh233_28800" to="479816717#0" type="veh_passenger"/>
    <trip depart="29010.09" departLane="best" from="625397297" id="veh234_28800" to="491628727#0" type="veh_passenger"/>
    <trip depart="29010.98" departLane="best" from="1042716324" id="veh235_28800" to="-100646252#0" type="veh_passenger"/>
    <trip depart="29011.88" departLane="best" from="1041544550#0" id="veh236_28800" to="490216931#1" type="veh_passenger"/>
    <trip depart="29012.78" departLane="best" from="623891513" id="veh237_28800" to="773159597#3" type="veh_passenger"/>
    <trip depart="29013.68" departLane="best" from="159453449#7" id="veh238_28800" to="490192688#3-AddedOnRampEdge" type="veh_passenger"/>
    <trip depart="29014.58" departLane="best" from="25931950-AddedOffRampEdge" id="veh239_28800" to="321073948" type="veh_passenger"/>
    <trip depart="29016.37" departLane="best" from="1041504064" id="veh241_28800" to="479797321" type="veh_passenger"/>
    <trip depart="29018.17" departLane="best" from="224737849#3" id="veh243_28800" to="-479797258#6" type="veh_passenger"/>
    <trip depart="29019.96" departLane="best" from="156148397#3" id="veh245_28800" to="25934381#0" type="veh_passenger"/>
    <trip depart="29020.86" departLane="best" from="-156148407#1" id="veh246_28800" to="479751358#0" type="veh_passenger"/>
    <trip depart="29021.76" departLane="best" from="-479797279" id="veh247_28800" to="166563429#5" type="veh_passenger"/>
    <trip depart="29022.66" departLane="best" from="-216060954#0" id="veh248_28800" to="1042449170" type="veh_passenger"/>
    <trip depart="29023.55" departLane="best" from="490718877#0" id="veh249_28800" to="1042449170" type="veh_passenger"/>
    <trip depart="29025.35" departLane="best" from="1036313338" id="veh251_28800" to="-25934385#0" type="veh_passenger"/>
    <trip depart="29026.25" departLane="best" from="-1039220886" id="veh252_28800" to="255416245#1" type="veh_passenger"/>
    <trip depart="29027.15" departLane="best" from="479797258#5" id="veh253_28800" to="538068339#5" type="veh_passenger"/>
    <trip depart="29028.04" departLane="best" from="479797271" id="veh254_28800" to="490216934#0" type="veh_passenger"/>
    <trip depart="29028.94" departLane="best" from="773159597#1" id="veh255_28800" to="-623891512" type="veh_passenger"/>
    <trip depart="29030.74" departLane="best" from="-479621763#11" id="veh257_28800" to="479797310#2" type="veh_passenger"/>
    <trip depart="29031.63" departLane="best" from="267535712" id="veh258_28800" to="100646248#1" type="veh_passenger"/>
    <trip depart="29032.53" departLane="best" from="480250287#2" id="veh259_28800" to="491628727#1" type="veh_passenger"/>
    <trip depart="29033.43" departLane="best" from="-480284570" id="veh260_28800" to="379986688#5" type="veh_passenger"/>
    <trip depart="29034.33" departLane="best" from="490165001#0" id="veh261_28800" to="-479621751#0" type="veh_passenger"/>
    <trip depart="29036.12" departLane="best" from="-475316652#3" id="veh263_28800" to="-159457890#2" type="veh_passenger"/>
    <trip depart="29037.02" departLane="best" from="1040882902#0" id="veh264_28800" to="479797318#0" type="veh_passenger"/>
    <trip depart="29037.92" departLane="best" from="774852739#0" id="veh265_28800" to="1042716327" type="veh_passenger"/>
    <trip depart="29039.71" departLane="best" from="479812143#3" id="veh267_28800" to="479613108#1" type="veh_passenger"/>
    <trip depart="29041.51" departLane="best" from="623891500#1" id="veh269_28800" to="321073251" type="veh_passenger"/>
    <trip depart="29042.41" departLane="best" from="491638590#0" id="veh270_28800" to="1041521601" type="veh_passenger"/>
    <trip depart="29043.31" departLane="best" from="159455874#5" id="veh271_28800" to="1042334799" type="veh_passenger"/>
    <trip depart="29044.2" departLane="best" from="248698674#2" id="veh272_28800" to="1041286369" type="veh_passenger"/>
    <trip depart="29046" departLane="best" from="-475316645#0" id="veh274_28800" to="774852739#1" type="veh_passenger"/>
    <trip depart="29046.9" departLane="best" from="479621763#6" id="veh275_28800" to="622804124#1" type="veh_passenger"/>
    <trip depart="29048.69" departLane="best" from="483726628#1" id="veh277_28800" to="775380332#4" type="veh_passenger"/>
    <trip depart="29049.59" departLane="best" from="1036341364#0" id="veh278_28800" to="61163785#3" type="veh_passenger"/>
    <trip depart="29050.49" departLane="best" from="25931907" id="veh279_28800" to="216060954#3" type="veh_passenger"/>
    <trip depart="29051.39" departLane="best" from="159455892#3" id="veh280_28800" to="481854596#2" type="veh_passenger"/>
    <trip depart="29052.28" departLane="best" from="1036341362#1" id="veh281_28800" to="623474399#2" type="veh_passenger"/>
    <trip depart="29053.18" departLane="best" from="622873931#0" id="veh282_28800" to="-320755658#2" type="veh_passenger"/>
    <trip depart="29054.08" departLane="best" from="665451328#4" id="veh283_28800" to="1036052086#2" type="veh_passenger"/>
    <trip depart="29054.98" departLane="best" from="216065940#2" id="veh284_28800" to="390383583#0" type="veh_passenger"/>
    <trip depart="29057.67" departLane="best" from="-856908280" id="veh287_28800" to="584750383#1" type="veh_passenger"/>
    <trip depart="29059.47" departLane="best" from="480250295#0" id="veh289_28800" to="1036341355" type="veh_passenger"/>
    <trip depart="29061.26" departLane="best" from="-256157283#0" id="veh291_28800" to="480284575" type="veh_passenger"/>
    <trip depart="29062.16" departLane="best" from="235427743#0" id="veh292_28800" to="491628725#0" type="veh_passenger"/>
    <trip depart="29063.06" departLane="best" from="479812143#3" id="veh293_28800" to="479751374#1" type="veh_passenger"/>
    <trip depart="29063.96" departLane="best" from="235436489#0" id="veh294_28800" to="583797089#2" type="veh_passenger"/>
    <trip depart="29064.85" departLane="best" from="-25934395#4" id="veh295_28800" to="100646269#0" type="veh_passenger"/>
    <trip depart="29065.75" departLane="best" from="479812147#0" id="veh296_28800" to="1039133060" type="veh_passenger"/>
    <trip depart="29067.55" departLane="best" from="25931028#4" id="veh298_28800" to="156148419#3" type="veh_passenger"/>
    <trip depart="29068.44" departLane="best" from="489924065" id="veh299_28800" to="1040929341" type="veh_passenger"/>
    <trip depart="29069.34" departLane="best" from="480250296#2" id="veh300_28800" to="1036341350#3" type="veh_passenger"/>
    <trip depart="29070.24" departLane="best" from="1036114082" id="veh301_28800" to="-479621763#9" type="veh_passenger"/>
    <trip depart="29071.14" departLane="best" from="-61163785#3" id="veh302_28800" to="-479621763#5" type="veh_passenger"/>
    <trip depart="29072.04" departLane="best" from="25931033" id="veh303_28800" to="491628725#3" type="veh_passenger"/>
    <trip depart="29072.93" departLane="best" from="-491638583#3" id="veh304_28800" to="100646242#1" type="veh_passenger"/>
    <trip depart="29075.63" departLane="best" from="1036360487#6" id="veh307_28800" to="-475316653#0" type="veh_passenger"/>
    <trip depart="29076.52" departLane="best" from="-622805764#1" id="veh308_28800" to="1032987570#1" type="veh_passenger"/>
    <trip depart="29079.22" departLane="best" from="854040751" id="veh311_28800" to="25931028#5" type="veh_passenger"/>
    <trip depart="29080.12" departLane="best" from="479816723#2" id="veh312_28800" to="-479797258#1" type="veh_passenger"/>
    <trip depart="29081.91" departLane="best" from="658130902" id="veh314_28800" to="26234533#2" type="veh_passenger"/>
    <trip depart="29082.81" departLane="best" from="224737850#2" id="veh315_28800" to="159453472#0" type="veh_passenger"/>
    <trip depart="29083.71" departLane="best" from="-490718877#2" id="veh316_28800" to="-248698662" type="veh_passenger"/>
    <trip depart="29085.5" departLane="best" from="618371797" id="veh318_28800" to="1046628053" type="veh_passenger"/>
    <trip depart="29086.4" departLane="best" from="-255416142#4" id="veh319_28800" to="479621745#1" type="veh_passenger"/>
    <trip depart="29088.2" departLane="best" from="267535712" id="veh321_28800" to="1039133060" type="veh_passenger"/>
    <trip depart="29089.09" departLane="best" from="994962121#3" id="veh322_28800" to="-479621763#11" type="veh_passenger"/>
    <trip depart="29089.99" departLane="best" from="491628725#1" id="veh323_28800" to="379986688#1" type="veh_passenger"/>
    <trip depart="29091.79" departLane="best" from="256157278#0" id="veh325_28800" to="159455875#2" type="veh_passenger"/>
    <trip depart="29092.69" departLane="best" from="166563429#5" id="veh326_28800" to="625413762#1" type="veh_passenger"/>
    <trip depart="29093.58" departLane="best" from="901285521" id="veh327_28800" to="1039133060" type="veh_passenger"/>
    <trip depart="29094.48" departLane="best" from="479621743#1" id="veh328_28800" to="379986768" type="veh_passenger"/>
    <trip depart="29095.38" departLane="best" from="489606084-AddedOnRampEdge" id="veh329_28800" to="765467137" type="veh_passenger"/>
    <trip depart="29096.28" departLane="best" from="-665451328#7" id="veh330_28800" to="-775599627#0" type="veh_passenger"/>
    <trip depart="29097.17" departLane="best" from="479797300#0" id="veh331_28800" to="-480282280" type="veh_passenger"/>
    <trip depart="29098.07" departLane="best" from="-480475790#0" id="veh332_28800" to="-256157278#0" type="veh_passenger"/>
    <trip depart="29098.97" departLane="best" from="-100646234" id="veh333_28800" to="159455875#2" type="veh_passenger"/>