<routes>
    <vType id="veh_passenger" vClass="passenger"/>
    <trip depart="32400" departLane="best" from="479751369#4" id="veh0_32400" to="-159455892#6" type="veh_passenger"/>
    <trip depart="32400.9" departLane="best" from="1036346145" id="veh1_32400" to="100646295#1" type="veh_passenger"/>
    <trip depart="32401.8" departLane="best" from="486825027#0" id="veh2_32400" to="479797313#7" type="veh_passenger"/>
    <trip depart="32402.69" departLane="best" from="665453544" id="veh3_32400" to="-320755659#0" type="veh_passenger"/>
    <trip depart="32404.49" departLane="best" from="100646220#1" id="veh5_32400" to="235424958#4" type="veh_passenger"/>
    <trip depart="32405.39" departLane="best" from="-155033028#1" id="veh6_32400" to="-623891502#0" type="veh_passenger"/>
    <trip depart="32406.28" departLane="best" from="479797258#4" id="veh7_32400" to="25931028#0" type="veh_passenger"/>
    <trip depart="32407.18" departLane="best" from="100646245#3" id="veh8_32400" to="321071861#2" type="veh_passenger"/>
    <trip depart="32408.98" departLane="best" from="1041521602" id="veh10_32400" to="-480276564" type="veh_passenger"/>
    <trip depart="32409.88" departLane="best" from="773876919#5" id="veh11_32400" to="1041187875-AddedOnRampEdge" type="veh_passenger"/>
    <trip depart="32411.67" departLane="best" from="623474397#3" id="veh13_32400" to="321073948" type="veh_passenger"/>
    <trip depart="32412.57" departLane="best" from="61163715#4" id="veh14_32400" to="481854591#1" type="veh_passenger"/>
    <trip depart="32413.47" departLane="best" from="25931033" id="veh15_32400" to="854001005#0" type="veh_passenger"/>
    <trip depart="32415.26" departLane="best" from="622809059#0" id="veh17_32400" to="475316653#4" type="veh_passenger"/>
    <trip depart="32416.16" departLane="best" from="625413783#2" id="veh18_32400" to="320755665" type="veh_passenger"/>
    <trip depart="32419.75" departLane="best" from="-379986746#0" id="veh22_32400" to="1036341357#0" type="veh_passenger"/>
    <trip depart="32421.55" departLane="best" from="1042693362#0" id="veh24_32400" to="-775380332#0" type="veh_passenger"/>
    <trip depart="32422.45" departLane="best" from="1036341360#1" id="veh25_32400" to="743386900" type="veh_passenger"/>
    <trip depart="32423.34" departLane="best" from="479797253#1" id="veh26_32400" to="379986751" type="veh_passenger"/>
    <trip depart="32425.14" departLane="best" from="-480252897#2" id="veh28_32400" to="1042449170" type="veh_passenger"/>
    <trip depart="32426.04" departLane="best" from="901285519#0" id="veh29_32400" to="479621763#4" type="veh_passenger"/>
    <trip depart="32427.83" departLane="best" from="623128861" id="veh31_32400" to="491638585" type="veh_passenger"/>
    <trip depart="32430.53" departLane="best" from="-775380332#5" id="veh34_32400" to="765449928" type="veh_passenger"/>
    <trip depart="32432.32" departLane="best" from="479797277#5" id="veh36_32400" to="1042716326" type="veh_passenger"/>
    <trip depart="32433.22" departLane="best" from="742718528#2" id="veh37_32400" to="166563426#4" type="veh_passenger"/>
    <trip depart="32434.12" departLane="best" from="1036341358#0" id="veh38_32400" to="1036060565" type="veh_passenger"/>
    <trip depart="32435.01" departLane="best" from="26234656#0" id="veh39_32400" to="1036099955" type="veh_passenger"/>
    <trip depart="32435.91" departLane="best" from="321073225#2" id="veh40_32400" to="684128578#0" type="veh_passenger"/>
    <trip depart="32436.81" departLane="best" from="156148402#2" id="veh41_32400" to="100646256#0" type="veh_passenger"/>
    <trip depart="32437.71" departLane="best" from="994962124#6" id="veh42_32400" to="235424974#1" type="veh_passenger"/>
    <trip depart="32439.5" departLane="best" from="-475316653#5" id="veh44_32400" to="479613108#2" type="veh_passenger"/>
    <trip depart="32440.4" departLane="best" from="583797089#1" id="veh45_32400" to="156148413#0" type="veh_passenger"/>
    <trip depart="32441.3" departLane="best" from="-248698662" id="veh46_32400" to="1042676039" type="veh_passenger"/>
    <trip depart="32442.2" departLane="best" from="994962124#3" id="veh47_32400" to="248698674#2" type="veh_passenger"/>
    <trip depart="32443.09" departLane="best" from="854001005#0" id="veh48_32400" to="625413762#3" type="veh_passenger"/>
    <trip depart="32443.99" departLane="best" from="-1036047409#0" id="veh49_32400" to="480284576#2" type="veh_passenger"/>
    <trip depart="32444.89" departLane="best" from="479797341#1-AddedOnRampEdge" id="veh50_32400" to="255416224#2" type="veh_passenger"/>
    <trip depart="32445.79" departLane="best" from="1036341360#0" id="veh51_32400" to="479621763#7" type="veh_passenger"/>
    <trip depart="32446.69" departLane="best" from="-475319370" id="veh52_32400" to="159453447#8" type="veh_passenger"/>
    <trip depart="32447.58" departLane="best" from="178774212#0" id="veh53_32400" to="773159597#3" type="veh_passenger"/>
    <trip depart="32449.38" departLane="best" from="248698668#12" id="veh55_32400" to="-490165001#1" type="veh_passenger"/>
    <trip depart="32451.17" departLane="best" from="1039159932#1" id="veh57_32400" to="479621763#11" type="veh_passenger"/>
    <trip depart="32452.97" departLane="best" from="491462355" id="veh59_32400" to="255416245#1" type="veh_passenger"/>
    <trip depart="32453.87" departLane="best" from="491638583#0" id="veh60_32400" to="255416142#2" type="veh_passenger"/>
    <trip depart="32454.77" departLane="best" from="-100646217#1" id="veh61_32400" to="1040911960" type="veh_passenger"/>
    <trip depart="32459.26" departLane="best" from="-256157283#0" id="veh66_32400" to="216065938#0" type="veh_passenger"/>
    <trip depart="32460.15" departLane="best" from="-248698668#10" id="veh67_32400" to="491628725#1-AddedOffRampEdge" type="veh_passenger"/>
    <trip depart="32461.05" departLane="best" from="491628725#1-AddedOffRampEdge" id="veh68_32400" to="-479797283#1" type="veh_passenger"/>
    <trip depart="32461.95" departLane="best" from="224737854#2" id="veh69_32400" to="25931028#3" type="veh_passenger"/>
    <trip depart="32464.64" departLane="best" from="25931909" id="veh72_32400" to="481854591#1" type="veh_passenger"/>
    <trip depart="32465.54" departLane="best" from="-625413768#3" id="veh73_32400" to="1039159932#1" type="veh_passenger"/>
    <trip depart="32466.44" departLane="best" from="994962124#2" id="veh74_32400" to="479797239#0" type="veh_passenger"/>
    <trip depart="32468.23" departLane="best" from="-479621745#7" id="veh76_32400" to="1032262905#1" type="veh_passenger"/>
    <trip depart="32469.13" departLane="best" from="1041504065" id="veh77_32400" to="321071861#1" type="veh_passenger"/>
    <trip depart="32470.03" departLane="best" from="1032665742" id="veh78_32400" to="100646260#0" type="veh_passenger"/>
    <trip depart="32470.93" departLane="best" from="-248698668#8" id="veh79_32400" to="479621745#7" type="veh_passenger"/>
    <trip depart="32472.72" departLane="best" from="625413768#2" id="veh81_32400" to="-255416245#0" type="veh_passenger"/>
    <trip depart="32474.52" departLane="best" from="-994875416" id="veh83_32400" to="-479797308" type="veh_passenger"/>
    <trip depart="32475.42" departLane="best" from="742727484#1" id="veh84_32400" to="26234533#0" type="veh_passenger"/>
    <trip depart="32476.31" departLane="best" from="224737852#6" id="veh85_32400" to="538068606-AddedOffRampEdge" type="veh_passenger"/>
    <trip depart="32477.21" departLane="best" from="-320758120" id="veh86_32400" to="156148432#0" type="veh_passenger"/>
    <trip depart="32479.01" departLane="best" from="481854588#3" id="veh88_32400" to="479797313#0" type="veh_passenger"/>
    <trip depart="32480.8" departLane="best" from="156148407#0" id="veh90_32400" to="1041235840#1-AddedOffRampEdge" type="veh_passenger"/>
    <trip depart="32481.7" departLane="best" from="625413783#2" id="veh91_32400" to="1036062887" type="veh_passenger"/>
    <trip depart="32482.6" departLane="best" from="-61163715#2" id="veh92_32400" to="159455874#9" type="veh_passenger"/>
    <trip depart="32483.5" departLane="best" from="159453472#0" id="veh93_32400" to="1036341357#1" type="veh_passenger"/>
    <trip depart="32485.29" departLane="best" from="166563429#6" id="veh95_32400" to="625413766#0" type="veh_passenger"/>
    <trip depart="32487.09" departLane="best" from="996026061#1" id="veh97_32400" to="622873931#7" type="veh_passenger"/>
    <trip depart="32487.99" departLane="best" from="854001000#1" id="veh98_32400" to="742727471" type="veh_passenger"/>
    <trip depart="32489.78" departLane="best" from="235427270" id="veh100_32400" to="100646217#3" type="veh_passenger"/>
    <trip depart="32492.47" departLane="best" from="1036341358#1" id="veh103_32400" to="538068606-AddedOffRampEdge" type="veh_passenger"/>
    <trip depart="32493.37" departLane="best" from="178774217#1" id="veh104_32400" to="156148417" type="veh_passenger"/>
    <trip depart="32495.17" departLane="best" from="25934395#5" id="veh106_32400" to="480283416#1" type="veh_passenger"/>
    <trip depart="32496.07" departLane="best" from="-480250296#0" id="veh107_32400" to="1036360487#6" type="veh_passenger"/>
    <trip depart="32496.96" departLane="best" from="854001000#0" id="veh108_32400" to="320758120" type="veh_passenger"/>
    <trip depart="32497.86" departLane="best" from="25931909" id="veh109_32400" to="490192688#5" type="veh_passenger"/>
    <trip depart="32498.76" departLane="best" from="-234517427#4" id="veh110_32400" to="320758139" type="veh_passenger"/>
    <trip depart="32499.66" departLane="best" from="248698670#0" id="veh111_32400" to="623891500#1" type="veh_passenger"/>
    <trip depart="32500.55" departLane="best" from="-480250299#0" id="veh112_32400" to="774852739#1" type="veh_passenger"/>
    <trip depart="32502.35" departLane="best" from="323563821#1" id="veh114_32400" to="479797313#4" type="veh_passenger"/>
    <trip depart="32505.04" departLane="best" from="323563821#0" id="veh117_32400" to="475316658#1" type="veh_passenger"/>
    <trip depart="32505.94" departLane="best" from="159453449#8" id="veh118_32400" to="320758139" type="veh_passenger"/>
    <trip depart="32506.84" departLane="best" from="256157278#1" id="veh119_32400" to="742727484#3" type="veh_passenger"/>
    <trip depart="32507.74" departLane="best" from="-658095569#2" id="veh120_32400" to="480276562" type="veh_passenger"/>
    <trip depart="32508.63" departLane="best" from="1036060565" id="veh121_32400" to="1042716327" type="veh_passenger"/>
    <trip depart="32509.53" departLane="best" from="479797313#7" id="veh122_32400" to="1038266651" type="veh_passenger"/>
    <trip depart="32510.43" departLane="best" from="1040925852" id="veh123_32400" to="490213894-AddedOffRampEdge" type="veh_passenger"/>
    <trip depart="32511.33" departLane="best" from="-248698670#2" id="veh124_32400" to="166563426#3" type="veh_passenger"/>
    <trip depart="32512.23" departLane="best" from="-255416142#1" id="veh125_32400" to="100646208" type="veh_passenger"/>
    <trip depart="32513.12" departLane="best" from="1036341358#1" id="veh126_32400" to="742727484#0" type="veh_passenger"/>
    <trip depart="32514.02" departLane="best" from="1042693361#1" id="veh127_32400" to="-480282281#0" type="veh_passenger"/>
    <trip depart="32514.92" departLane="best" from="622873931#7" id="veh128_32400" to="480250293#0" type="veh_passenger"/>
    <trip depart="32515.82" departLane="best" from="475316653#6" id="veh129_32400" to="854052897#4" type="veh_passenger"/>
    <trip depart="32516.71" departLane="best" from="479797277#2" id="veh130_32400" to="-100646260#1" type="veh_passenger"/>
    <trip depart="32517.61" departLane="best" from="618364867#1" id="veh131_32400" to="1038110939" type="veh_passenger"/>
    <trip depart="32518.51" departLane="best" from="479797310#0" id="veh132_32400" to="765449926#0" type="veh_passenger"/>
    <trip depart="32520.31" departLane="best" from="-475316645#2" id="veh134_32400" to="25931028#5" type="veh_passenger"/>
    <trip depart="32523" departLane="best" from="479621763#12" id="veh137_32400" to="1036099956#3" type="veh_passenger"/>
    <trip depart="32523.9" departLane="best" from="235427743#0" id="veh138_32400" to="696730624" type="veh_passenger"/>
    <trip depart="32524.8" departLane="best" from="623474397#0" id="veh139_32400" to="-379986688#2" type="veh_passenger"/>
    <trip depart="32525.69" departLane="best" from="159453472#4" id="veh140_32400" to="1036341355" type="veh_passenger"/>
    <trip depart="32526.59" departLane="best" from="-100646242#1" id="veh141_32400" to="491632371#2" type="veh_passenger"/>
    <trip depart="32527.49" departLane="best" from="479621774#2" id="veh142_32400" to="1036099953" type="veh_passenger"/>
    <trip depart="32528.39" departLane="best" from="489606090" id="veh143_32400" to="25931028#4" type="veh_passenger"/>
    <trip depart="32529.28" departLane="best" from="159455874#4" id="veh144_32400" to="-100646264#0" type="veh_passenger"/>
    <trip depart="32530.18" departLane="best" from="-255416153" id="veh145_32400" to="665451330#1" type="veh_passenger"/>
    <trip depart="32531.98" departLane="best" from="622873934#0" id="veh147_32400" to="320758130#1" type="veh_passenger"/>
    <trip depart="32532.88" departLane="best" from="-479816722#1" id="veh148_32400" to="-479797258#5" type="veh_passenger"/>
    <trip depart="32533.77" departLane="best" from="1040260533" id="veh149_32400" to="684128578#2" type="veh_passenger"/>
    <trip depart="32534.67" departLane="best" from="583797089#8" id="veh150_32400" to="625413762#3" type="veh_passenger"/>
    <trip depart="32535.57" departLane="best" from="684128578#0" id="veh151_32400" to="-775380332#4" type="veh_passenger"/>
    <trip depart="32537.36" departLane="best" from="491638583#6" id="veh153_32400" to="665451330#2" type="veh_passenger"/>
    <trip depart="32538.26" departLane="best" from="156148419#1" id="veh154_32400" to="475319371#0" type="veh_passenger"/>
    <trip depart="32540.06" departLane="best" from="625418511" id="veh156_32400" to="854040750" type="veh_passenger"/>
    <trip depart="32543.65" departLane="best" from="61163710#13" id="veh160_32400" to="625413783#2" type="veh_passenger"/>
    <trip depart="32545.44" departLane="best" from="538068340#1" id="veh162_32400" to="-479613101#1" type="veh_passenger"/>
    <trip depart="32547.24" departLane="best" from="100646256#1" id="veh164_32400" to="618371794" type="veh_passenger"/>
    <trip depart="32548.14" departLane="best" from="216060954#1" id="veh165_32400" to="1039133060" type="veh_passenger"/>
    <trip depart="32549.04" departLane="best" from="583797089#7" id="veh166_32400" to="1032987570#1" type="veh_passenger"/>
    <trip depart="32549.93" departLane="best" from="-1042698679" id="veh167_32400" to="-622804129#0" type="veh_passenger"/>
    <trip depart="32550.83" departLane="best" from="1041235840#0" id="veh168_32400" to="625413783#3" type="veh_passenger"/>
    <trip depart="32551.73" departLane="best" from="479751865#1" id="veh169_32400" to="1042728028#1" type="veh_passenger"/>
    <trip depart="32552.63" departLane="best" from="854052892-AddedOffRampEdge" id="veh170_32400" to="255416223#1" type="veh_passenger"/>
    <trip depart="32553.52" departLane="best" from="764267604" id="veh171_32400" to="-479621752#0" type="veh_passenger"/>
    <trip depart="32554.42" departLane="best" from="854001002#1" id="veh172_32400" to="-490165001#1" type="veh_passenger"/>
    <trip depart="32555.32" departLane="best" from="775122579#1" id="veh173_32400" to="1036114082" type="veh_passenger"/>
    <trip depart="32556.22" departLane="best" from="-475316653#0" id="veh174_32400" to="159453447#8" type="veh_passenger"/>
    <trip depart="32557.12" departLane="best" from="481854585" id="veh175_32400" to="1039159937" type="veh_passenger"/>
    <trip depart="32558.91" departLane="best" from="123423117#1" id="veh177_32400" to="320755661#1" type="veh_passenger"/>
    <trip depart="32559.81" departLane="best" from="1036338535" id="veh178_32400" to="480250299#1" type="veh_passenger"/>
    <trip depart="32560.71" departLane="best" from="-100646220#2" id="veh179_32400" to="742727470" type="veh_passenger"/>
    <trip depart="32562.5" departLane="best" from="489606090" id="veh181_32400" to="479797310#7" type="veh_passenger"/>
    <trip depart="32563.4" departLane="best" from="1042449169#1" id="veh182_32400" to="-255416229#2" type="veh_passenger"/>
    <trip depart="32565.2" departLane="best" from="1040882903" id="veh184_32400" to="623138417" type="veh_passenger"/>
    <trip depart="32566.09" departLane="best" from="480284576#1" id="veh185_32400" to="1038324580" type="veh_passenger"/>
    <trip depart="32566.99" departLane="best" from="1040591005" id="veh186_32400" to="145126347" type="veh_passenger"/>
    <trip depart="32567.89" departLane="best" from="156148404#3" id="veh187_32400" to="1036360487#5" type="veh_passenger"/>
    <trip depart="32568.79" departLane="best" from="-479621763#5" id="veh188_32400" to="156148404#2" type="veh_passenger"/>
    <trip depart="32569.69" departLane="best" from="764267605" id="veh189_32400" to="479797318#0" type="veh_passenger"/>
    <trip depart="32571.48" departLane="best" from="1039159935" id="veh191_32400" to="25931028#2" type="veh_passenger"/>
    <trip depart="32572.38" departLane="best" from="-100646217#0" id="veh192_32400" to="1036342983" type="veh_passenger"/>
    <trip depart="32573.28" departLane="best" from="159455874#8" id="veh193_32400" to="320758122#1" type="veh_passenger"/>
    <trip depart="32575.07" departLane="best" from="166563429#4" id="veh195_32400" to="100646217#3" type="veh_passenger"/>
    <trip depart="32575.97" departLane="best" from="224737854#0" id="veh196_32400" to="684135634#2" type="veh_passenger"/>
    <trip depart="32576.87" departLane="best" from="583797089#8" id="veh197_32400" to="-483726628#0" type="veh_passenger"/>
    <trip depart="32578.66" departLane="best" from="479621758#4" id="veh199_32400" to="1041187875" type="veh_passenger"/>
    <trip depart="32580.46" departLane="best" from="479797318#4" id="veh201_32400" to="1032262905#1" type="veh_passenger"/>
    <trip depart="32581.36" departLane="best" from="-623891515#1" id="veh202_32400" to="-159455892#4" type="veh_passenger"/>
    <trip depart="32583.15" departLane="best" from="623474399#3" id="veh204_32400" to="-255416251#2" type="veh_passenger"/>
    <trip depart="32584.05" departLane="best" from="159453447#12" id="veh205_32400" to="479621745#2" type="veh_passenger"/>
    <trip depart="32584.95" departLane="best" from="-622873929#0" id="veh206_32400" to="479816723#0" type="veh_passenger"/>
    <trip depart="32585.85" departLane="best" from="245763347#0" id="veh207_32400" to="1036052086#2" type="veh_passenger"/>
    <trip depart="32586.74" departLane="best" from="479797279" id="veh208_32400" to="-100646248#2" type="veh_passenger"/>
    <trip depart="32588.54" departLane="best" from="-475316645#2" id="veh210_32400" to="156148419#2" type="veh_passenger"/>
    <trip depart="32589.44" departLane="best" from="-483796488#0" id="veh211_32400" to="773876919#3" type="veh_passenger"/>
    <trip depart="32592.13" departLane="best" from="178774219#2" id="veh214_32400" to="61163710#1" type="veh_passenger"/>
    <trip depart="32593.93" departLane="best" from="323563821#2" id="veh216_32400" to="773159596#1" type="veh_passenger"/>
    <trip depart="32594.82" departLane="best" from="665453544" id="veh217_32400" to="47070283#3" type="veh_passenger"/>
    <trip depart="32595.72" departLane="best" from="480284575" id="veh218_32400" to="235424958#4" type="veh_passenger"/>
    <trip depart="32596.62" departLane="best" from="622873931#0" id="veh219_32400" to="25931028#2" type="veh_passenger"/>
    <trip depart="32597.52" departLane="best" from="665453553" id="veh220_32400" to="489629072#3" type="veh_passenger"/>
    <trip depart="32599.31" departLane="best" from="1036079534" id="veh222_32400" to="479621758#3" type="veh_passenger"/>
    <trip depart="32602.01" departLane="best" from="-255416209#0" id="veh225_32400" to="1036342983" type="veh_passenger"/>
    <trip depart="32603.8" departLane="best" from="25931909" id="veh227_32400" to="-479797345#1" type="veh_passenger"/>
    <trip depart="32606.5" departLane="best" from="156148419#4" id="veh230_32400" to="256157279" type="veh_passenger"/>
    <trip depart="32609.19" departLane="best" from="321073225#1" id="veh233_32400" to="479816717#0" type="veh_passenger"/>
    <trip depart="32610.09" departLane="best" from="625397297" id="veh234_32400" to="491628727#0" type="veh_passenger"/>
    <trip depart="32610.98" departLane="best" from="1042716324" id="veh235_32400" to="-100646252#0" type="veh_passenger"/>
    <trip depart="32611.88" departLane="best" from="1041544550#0" id="veh236_32400" to="490216931#1" type="veh_passenger"/>
    <trip depart="32612.78" departLane="best" from="623891513" id="veh237_32400" to="773159597#3" type="veh_passenger"/>
    <trip depart="32613.68" departLane="best" from="159453449#7" id="veh238_32400" to="490192688#3-AddedOnRampEdge" type="veh_passenger"/>
    <trip depart="32614.58" departLane="best" from="25931950-AddedOffRampEdge" id="veh239_32400" to="321073948" type="veh_passenger"/>
    <trip depart="32616.37" departLane="best" from="1041504064" id="veh241_32400" to="479797321" type="veh_passenger"/>
    <trip depart="32618.17" departLane="best" from="224737849#3" id="veh243_32400" to="-479797258#6" type="veh_passenger"/>
    <trip depart="32619.96" departLane="best" from="156148397#3" id="veh245_32400" to="25934381#0" type="veh_passenger"/>
    <trip depart="32620.86" departLane="best" from="-156148407#1" id="veh246_32400" to="479751358#0" type="veh_passenger"/>
    <trip depart="32621.76" departLane="best" from="-479797279" id="veh247_32400" to="166563429#5" type="veh_passenger"/>
    <trip depart="32622.66" departLane="best" from="-216060954#0" id="veh248_32400" to="1042449170" type="veh_passenger"/>
    <trip depart="32623.55" departLane="best" from="490718877#0" id="veh249_32400" to="1042449170" type="veh_passenger"/>
    <trip depart="32625.35" departLane="best" from="1036313338" id="veh251_32400" to="-25934385#0" type="veh_passenger"/>
    <trip depart="32626.25" departLane="best" from="-1039220886" id="veh252_32400" to="255416245#1" type="veh_passenger"/>
    <trip depart="32627.15" departLane="best" from="479797258#5" id="veh253_32400" to="538068339#5" type="veh_passenger"/>
    <trip depart="32628.04" departLane="best" from="479797271" id="veh254_32400" to="490216934#0" type="veh_passenger"/>
    <trip depart="32628.94" departLane="best" from="773159597#1" id="veh255_32400" to="-623891512" type="veh_passenger"/>
    <trip depart="32630.74" departLane="best" from="-479621763#11" id="veh257_32400" to="479797310#2" type="veh_passenger"/>
    <trip depart="32631.63" departLane="best" from="267535712" id="veh258_32400" to="100646248#1" type="veh_passenger"/>
    <trip depart="32632.53" departLane="best" from="480250287#2" id="veh259_32400" to="491628727#1" type="veh_passenger"/>
    <trip depart="32633.43" departLane="best" from="-480284570" id="veh260_32400" to="379986688#5" type="veh_passenger"/>
    <trip depart="32634.33" departLane="best" from="490165001#0" id="veh261_32400" to="-479621751#0" type="veh_passenger"/>
    <trip depart="32636.12" departLane="best" from="-475316652#3" id="veh263_32400" to="-159457890#2" type="veh_passenger"/>
    <trip depart="32637.02" departLane="best" from="1040882902#0" id="veh264_32400" to="479797318#0" type="veh_passenger"/>
    <trip depart="32637.92" departLane="best" from="774852739#0" id="veh265_32400" to="1042716327" type="veh_passenger"/>
    <trip depart="32639.71" departLane="best" from="479812143#3" id="veh267_32400" to="479613108#1" type="veh_passenger"/>
    <trip depart="32641.51" departLane="best" from="623891500#1" id="veh269_32400" to="321073251" type="veh_passenger"/>
    <trip depart="32642.41" departLane="best" from="491638590#0" id="veh270_32400" to="1041521601" type="veh_passenger"/>
    <trip depart="32643.31" departLane="best" from="159455874#5" id="veh271_32400" to="1042334799" type="veh_passenger"/>
    <trip depart="32644.2" departLane="best" from="248698674#2" id="veh272_32400" to="1041286369" type="veh_passenger"/>
    <trip depart="32646" departLane="best" from="-475316645#0" id="veh274_32400" to="774852739#1" type="veh_passenger"/>
    <trip depart="32646.9" departLane="best" from="479621763#6" id="veh275_32400" to="622804124#1" type="veh_passenger"/>
    <trip depart="32648.69" departLane="best" from="483726628#1" id="veh277_32400" to="775380332#4" type="veh_passenger"/>
    <trip depart="32649.59" departLane="best" from="1036341364#0" id="veh278_32400" to="61163785#3" type="veh_passenger"/>
    <trip depart="32650.49" departLane="best" from="25931907" id="veh279_32400" to="216060954#3" type="veh_passenger"/>
    <trip depart="32651.39" departLane="best" from="159455892#3" id="veh280_32400" to="481854596#2" type="veh_passenger"/>
    <trip depart="32652.28" departLane="best" from="1036341362#1" id="veh281_32400" to="623474399#2" type="veh_passenger"/>
    <trip depart="32653.18" departLane="best" from="622873931#0" id="veh282_32400" to="-320755658#2" type="veh_passenger"/>
    <trip depart="32654.08" departLane="best" from="665451328#4" id="veh283_32400" to="1036052086#2" type="veh_passenger"/>
    <trip depart="32654.98" departLane="best" from="216065940#2" id="veh284_32400" to="390383583#0" type="veh_passenger"/>
    <trip depart="32657.67" departLane="best" from="-856908280" id="veh287_32400" to="584750383#1" type="veh_passenger"/>
    <trip depart="32659.47" departLane="best" from="480250295#0" id="veh289_32400" to="1036341355" type="veh_passenger"/>
    <trip depart="32661.26" departLane="best" from="-256157283#0" id="veh291_32400" to="480284575" type="veh_passenger"/>
    <trip depart="32662.16" departLane="best" from="235427743#0" id="veh292_32400" to="491628725#0" type="veh_passenger"/>
    <trip depart="32663.06" departLane="best" from="479812143#3" id="veh293_32400" to="479751374#1" type="veh_passenger"/>
    <trip depart="32663.96" departLane="best" from="235436489#0" id="veh294_32400" to="583797089#2" type="veh_passenger"/>
    <trip depart="32664.85" departLane="best" from="-25934395#4" id="veh295_32400" to="100646269#0" type="veh_passenger"/>
    <trip depart="32665.75" departLane="best" from="479812147#0" id="veh296_32400" to="1039133060" type="veh_passenger"/>
    <trip depart="32667.55" departLane="best" from="25931028#4" id="veh298_32400" to="156148419#3" type="veh_passenger"/>
    <trip depart="32668.44" departLane="best" from="489924065" id="veh299_32400" to="1040929341" type="veh_passenger"/>
    <trip depart="32669.34" departLane="best" from="480250296#2" id="veh300_32400" to="1036341350#3" type="veh_passenger"/>
    <trip depart="32670.24" departLane="best" from="1036114082" id="veh301_32400" to="-479621763#9" type="veh_passenger"/>
    <trip depart="32671.14" departLane="best" from="-61163785#3" id="veh302_32400" to="-479621763#5" type="veh_passenger"/>
    <trip depart="32672.04" departLane="best" from="25931033" id="veh303_32400" to="491628725#3" type="veh_passenger"/>
    <trip depart="32672.93" departLane="best" from="-491638583#3" id="veh304_32400" to="100646242#1" type="veh_passenger"/>
    <trip depart="32675.63" departLane="best" from="1036360487#6" id="veh307_32400" to="-475316653#0" type="veh_passenger"/>
    <trip depart="32676.52" departLane="best" from="-622805764#1" id="veh308_32400" to="1032987570#1" type="veh_passenger"/>
    <trip depart="32679.22" departLane="best" from="854040751" id="veh311_32400" to="25931028#5" type="veh_passenger"/>
    <trip depart="32680.12" departLane="best" from="479816723#2" id="veh312_32400" to="-479797258#1" type="veh_passenger"/>
    <trip depart="32681.91" departLane="best" from="658130902" id="veh314_32400" to="26234533#2" type="veh_passenger"/>
    <trip depart="32682.81" departLane="best" from="224737850#2" id="veh315_32400" to="159453472#0" type="veh_passenger"/>
    <trip depart="32683.71" departLane="best" from="-490718877#2" id="veh316_32400" to="-248698662" type="veh_passenger"/>
    <trip depart="32685.5" departLane="best" from="618371797" id="veh318_32400" to="1046628053" type="veh_passenger"/>
    <trip depart="32686.4" departLane="best" from="-255416142#4" id="veh319_32400" to="479621745#1" type="veh_passenger"/>
    <trip depart="32688.2" departLane="best" from="267535712" id="veh321_32400" to="1039133060" type="veh_passenger"/>
    <trip depart="32689.09" departLane="best" from="994962121#3" id="veh322_32400" to="-479621763#11" type="veh_passenger"/>
    <trip depart="32689.99" departLane="best" from="491628725#1" id="veh323_32400" to="379986688#1" type="veh_passenger"/>
    <trip depart="32691.79" departLane="best" from="256157278#0" id="veh325_32400" to="159455875#2" type="veh_passenger"/>
    <trip depart="32692.69" departLane="best" from="166563429#5" id="veh326_32400" to="625413762#1" type="veh_passenger"/>
    <trip depart="32693.58" departLane="best" from="901285521" id="veh327_32400" to="1039133060" type="veh_passenger"/>
    <trip depart="32694.48" departLane="best" from="479621743#1" id="veh328_32400" to="379986768" type="veh_passenger"/>
    <trip depart="32695.38" departLane="best" from="489606084-AddedOnRampEdge" id="veh329_32400" to="765467137" type="veh_passenger"/>
    <trip depart="32696.28" departLane="best" from="-665451328#7" id="veh330_32400" to="-775599627#0" type="veh_passenger"/>
    <trip depart="32697.17" departLane="best" from="479797300#0" id="veh331_32400" to="-480282280" type="veh_passenger"/>
    <trip depart="32698.07" departLane="best" from="-480475790#0" id="veh332_32400" to="-256157278#0" type="veh_passenger"/>
    <trip depart="32698.97" departLane="best" from="-100646234" id="veh333_32400" to="159455875#2" type="veh_passenger"/>