<?xml version="1.0" encoding="UTF-8"?>

<!-- generated on Tue Jun 22 12:18:19 2021 by Eclipse SUMO od2trips Version 1.6.0
-->

<configuration xmlns:xsi="http://www.w3.org/2001/XMLSchema-instance" xsi:noNamespaceSchemaLocation="http://sumo.dlr.de/xsd/od2tripsConfiguration.xsd">

    <input>
        <taz-files value="gharrafa_taz.xml"/>
        <od-matrix-files value="gharrafaMatOD_H24_jun2021"/>
    </input>

    <output>
        <output-file value="gha_trips_jun2021_H24.rou.xml"/>
    </output>

    <processing>
        <timeline value="0.8,0.5,0.4,0.3,0.4,1.2,4.5,7.4,6.6,5.2,5.0,5.0,5.2,5.3,5.6,6.7,8.4,8.6,7.4,5.0,3.9,3.0,2.1,1.6"/>
        <timeline.day-in-hours value="true"/>
    </processing>

</configuration>
