<?xml version="1.0" encoding="UTF-8"?>

<!-- generated on Thu Jun 24 09:35:43 2021 by Eclipse SUMO od2trips Version 1.6.0
-->

<configuration xmlns:xsi="http://www.w3.org/2001/XMLSchema-instance" xsi:noNamespaceSchemaLocation="http://sumo.dlr.de/xsd/od2tripsConfiguration.xsd">

    <input>
        <taz-files value="../TAZ/gharrafa_taz.xml"/>
        <od-matrix-files value="gharrafaMatOD_7-8_R2"/>
    </input>

    <output>
        <output-file value="gha_trips_7-8_R2.rou.xml"/>
    </output>

</configuration>
