<routes>
    <vType id="tram_tram" vClass="tram"/>
    <vehicle depart="61322.11" departLane="best" departSpeed="max" id="tram2_61200" type="tram_tram">
        <route edges="762107988 762107957#4 762107957#5 762107957#6 762107957#8 762107957#9 762107957#10 762107957#11 684122873 684122874#1 684122874#2 762107958#0 762107959 762107964#1"/>
    </vehicle>
    <vehicle depart="61383.16" departLane="best" id="tram3_61200" type="tram_tram">
        <route edges="762108001#2 762108001#3 762108001#4 762108001#5 -1005819189#2 -1005819189#1 -1005819189#0 -762108000#9 -762108000#8 -762108000#7 -762108000#6 -762108000#5 -762108000#4 -762108000#2 -762108000#1 -762108000#0 -684135617 -775384756#7 -775384756#6 -775384756#5 -775384756#4 -775384756#3 -775384756#2 -775384756#1 -775384756#0 -684135616#0 -762107994#4 -762107994#3 -762107994#2 762107997 762107995#2 1005819191 -762107994#0"/>
    </vehicle>
    <vehicle depart="61444.22" departLane="best" id="tram4_61200" type="tram_tram">
        <route edges="-770742892#2 -762107939 -770742891#1 -770742891#0 762107937 770742891#1 762107939 770742892#2 770742892#3 770742892#4 770742892#5 762107943#0 762107943#1 -684135607#3 684135608#0 684135608#1 684135608#2 762107954#0 762107954#1 762107954#3 762107957#9 762107957#10 762107957#11 684122873 684122874#1 684122874#2 762107958#0 762107958#1"/>
    </vehicle>
    <vehicle depart="61505.27" departLane="best" departSpeed="max" id="tram5_61200" type="tram_tram">
        <route edges="762107994#0 -1005819191 -762107995#2 -762107997 762107994#2 762107994#3 762107994#4 762107994#5 684135616#1 775384756#1 775384756#2 775384756#3 775384756#4 775384756#5 775384756#6 775384756#7 775384756#8 1005819190 762108001#0 762108001#1 762108001#2 762108001#3 762108001#4 762108001#5 -1005819189#2"/>
    </vehicle>
    <vehicle depart="61566.33" departLane="best" departSpeed="max" id="tram6_61200" type="tram_tram">
        <route edges="762107994#0 -1005819191 -762107995#2 -762107997 762107994#2 762107994#3 762107994#4 762107994#5 684135616#1 775384756#1 775384756#2 775384756#3 775384756#4 775384756#5 775384756#6 775384756#7 775384756#8 1005819190 762107993 -208527108 -762107991#5 -762107991#4 -762107991#3 -762107991#2 -762107991#1 -762107991#0 -684135610#1 -684135610#0 -762107989 -762107942#1 -762107942#0 762108005#1 -770742882#1 -770742882#0 -770742883#0 -770742891#1 -770742891#0 762107937 770742891#1 770742891#2 770742883#1 770742882#1 770742882#2 762107942#0 762107943#1 -684135607#3 684135608#0 684135608#1 684135608#2 762107954#0 762107954#1 762107954#3 762107957#9 762107957#10 762107957#11 684122873 684122874#1 684122874#2 684122874#3 684122874#4 684122874#5 684122874#6 684122870#1 684122870#2 684122870#3 684122870#4 762107973#0 762107973#1"/>
    </vehicle>
    <vehicle depart="61688.43" departLane="best" departSpeed="max" id="tram8_61200" type="tram_tram">
        <route edges="774852773#0 774852773#1 774852773#2 762107957#1 762107957#3 762107957#4 684122860#0 684122860#1 684122860#2 684122860#3 684122860#4"/>
    </vehicle>
    <vehicle depart="61749.49" departLane="best" id="tram9_61200" type="tram_tram">
        <route edges="-762107990#0 -762108000#9 -762108000#8 -762108000#7 -762108000#6 -762108000#5 -762108000#4 -762108000#2 -762108000#1 -762108000#0 -684135617 -775384756#7 -775384756#6 -775384756#5 -775384756#4 -775384756#3 -775384756#2 -775384756#1 -775384756#0 -684135616#0 -762107994#4 -762107994#3 -762107994#2 762107997 762107995#2 1005819191 -762107994#0"/>
    </vehicle>
    <vehicle depart="61810.54" departLane="best" id="tram10_61200" type="tram_tram">
        <route edges="762107999#0 762107999#1 762107999#2 762107999#3 762107999#4 762107999#5 762107999#6 762107999#7 762107999#8 624520076#1 624520076#2 762107995#1 762107995#2 762107995#3 -762107995#3 -762107995#2 -762107995#1 -762107995#0 -624520076#1 -624520076#0 762107996 684135616#1 775384756#1 775384756#2 775384756#3 775384756#4 775384756#5 775384756#6 775384756#7 775384756#8 1005819190 762107993 -208527108 -762107991#5 -762107991#4 -762107991#3 -762107991#2 -762107991#1 -762107991#0 -684135610#1 -684135610#0 -762107989 -762107942#1 -762107942#0 762108005#1 -770742882#1 -770742882#0 -770742883#0 -770742891#1 -770742891#0 762107937 770742891#1 770742891#2 770742883#1 770742882#1 770742882#2 762107942#0 762107943#1 -684135607#3 684135608#0 684135608#1 684135608#2 762107954#0 762107954#1 762107954#3 762107957#9 762107957#10 762107957#11 684122873 684122874#1 684122874#2 762107958#0 762107958#1"/>
    </vehicle>
    <vehicle depart="61871.6" departLane="best" departSpeed="max" id="tram11_61200" type="tram_tram">
        <route edges="762107994#0 -1005819191 -762107995#2 -762107997 762107994#2 762107994#3 762107994#4 762107994#5 684135616#1 775384756#1 775384756#2 775384756#3 775384756#4 775384756#5 775384756#6 775384756#7 775384756#8 1005819190 762107993 -208527108 -762107991#5 -762107991#4 -762107991#3 -762107991#2 -762107991#1 -762107991#0 -684135610#1 -684135610#0 -762107989 -762107942#1 -762107942#0 762108005#1 -770742882#1 -770742882#0 -770742883#0 -770742891#1 -770742891#0 762107937 770742891#1 770742891#2 770742883#1 770742882#1 770742882#2 762107942#0 762107943#1 -684135607#3 684135608#0 684135608#1 684135608#2 762107954#0 762107954#1 762107954#3 762107957#9 762107957#10 762107957#11 684122873 684122874#1 684122874#2 684122874#3 684122874#4 684122874#5 684122874#6 684122870#1 684122870#2 684122870#3 684122870#4 762107973#0 762107973#1 762107972#1 762107981"/>
    </vehicle>
    <vehicle depart="61932.65" departLane="best" departSpeed="max" id="tram12_61200" type="tram_tram">
        <route edges="762107953#0 762107953#1 762107953#2 762107953#3 762107953#4 762107953#5 762107953#6 762107951#0 762107951#2 762107951#3 762107951#4 762107952#2 762107952#3 762107952#5 762107952#6 773159594#1 773159594#2"/>
    </vehicle>
    <vehicle depart="61993.71" departLane="best" id="tram13_61200" type="tram_tram">
        <route edges="762107994#2 762107994#3 762107994#4 762107994#5 684135616#1 775384756#1 775384756#2 775384756#3 775384756#4 775384756#5 775384756#6 775384756#7 775384756#8 1005819190 762107993 -208527108 -762107991#5 -762107991#4 -762107991#3 -762107991#2 -762107991#1 -762107991#0 -684135610#1 -684135610#0 -762107989 -762107942#1 -762107942#0 762108005#1 -770742882#1 -770742882#0 -770742883#0 -770742891#1 -770742891#0 762107937 770742891#1 770742891#2 770742883#1 770742882#1 770742882#2 762107942#0 762107943#1 -684135607#3 684135608#0 684135608#1 684135608#2 762107954#0 762107954#1 762107954#3 762107957#9 762107957#10 762107957#11 684122873 684122874#1 684122874#2 762107958#0 762107958#1"/>
    </vehicle>
    <vehicle depart="62237.92" departLane="best" departSpeed="max" id="tram17_61200" type="tram_tram">
        <route edges="762107972#0 762107972#1 762107972#2 762107972#3 684122864#1 684122864#2 684122864#3 762107953#4 762107953#5 762107953#6 762107953#7 762107953#9 684122860#4"/>
    </vehicle>
    <vehicle depart="62298.98" departLane="best" departSpeed="max" id="tram18_61200" type="tram_tram">
        <route edges="574609418#0 574609418#1 762107956 762107953#2 762107953#3 762107953#4 762107953#5 762107953#6 762107951#0 762107951#2 762107951#3 762107951#4 762107952#2 762107952#3 762107952#5 762107952#6 773159594#1 773159594#2"/>
    </vehicle>
    <vehicle depart="62360.03" departLane="best" id="tram19_61200" type="tram_tram">
        <route edges="762107995#1 762107995#2 762107995#3 -762107995#3 -762107995#2 -762107997 762107994#2 762107994#3 762107994#4 762107994#5 684135616#1 775384756#1 775384756#2 775384756#3 775384756#4 775384756#5 775384756#6 775384756#7 775384756#8 1005819190 762107993 -208527108 -762107991#5 -762107991#4 -762107991#3 -762107991#2 -762107991#1 -762107991#0 -684135610#1 -684135610#0 -762107989 -762107942#1 -762107942#0 762108005#1 -770742882#1 -770742882#0 -770742883#0 -770742891#1 -770742891#0 762107937 770742891#1 770742891#2 770742883#1 770742882#1 770742882#2 762107942#0 762107943#1 -684135607#3 684135608#0 684135608#1 684135608#2 762107954#0 762107954#1 762107954#3 762107957#9 762107957#10 762107957#11 684122873 684122874#1 684122874#2 684122874#3 684122874#4 684122874#5 684122874#6 684122870#1 684122870#2 684122870#3 684122870#4 762107973#0 762107973#1 762107972#1 762107981"/>
    </vehicle>
    <vehicle depart="62421.09" departLane="best" departSpeed="max" id="tram20_61200" type="tram_tram">
        <route edges="-762107995#3 -762107995#2 -762107997 762107994#2 762107994#3 762107994#4 762107994#5 684135616#1 775384756#1 775384756#2 775384756#3 775384756#4 775384756#5 775384756#6 775384756#7 775384756#8 1005819190 762107993 -208527108 -762107991#5 -762107991#4 -762107991#3 -762107991#2 -762107991#1 -762107991#0 -684135610#1 -684135610#0 -762107989 -762107942#1 -762107942#0 762108005#1 -770742882#1 -770742882#0 -770742883#0 -770742891#1 -770742891#0 762107937 770742891#1 770742891#2 770742883#1 770742882#1 770742882#2 762107942#0 762107943#1 -684135607#3 684135608#0 684135608#1 684135608#2 762107954#0 762107954#1 762107954#3 762107957#9 762107957#10 762107957#11 684122873 684122874#1 684122874#2 684122874#3 684122874#4 684122874#5 684122874#6 684122870#1 684122870#2 684122870#3 684122870#4 684122870#5 684122870#6 762107971 762107970#1 684122864#2 684122864#3 762107953#4 762107953#5 762107953#6 762107953#7 762107953#9 684122860#4"/>
    </vehicle>
    <vehicle depart="62482.14" departLane="best" id="tram21_61200" type="tram_tram">
        <route edges="775384756#4 775384756#5 775384756#6 775384756#7 775384756#8 1005819190 762107993 -208527108 -762107991#5 -762107991#4 -762107991#3 -762107991#2 -762107991#1 -762107991#0 -684135610#1 -684135610#0 -762107989 -762107942#1 -762107942#0 762108005#1 -770742882#1 -770742882#0 -770742883#0 -770742891#1 -770742891#0 762107937 770742891#1 770742891#2 770742883#1 770742882#1 770742882#2 762107942#0 762107943#1 -684135607#3 684135608#0 684135608#1 684135608#2 762107954#0 762107954#1 762107954#3 762107957#9 762107957#10 762107957#11 684122873 684122874#1 684122874#2 762107958#0 762107959 762107964#1"/>
    </vehicle>
    <vehicle depart="62543.2" departLane="best" id="tram22_61200" type="tram_tram">
        <route edges="-775384756#1 -775384756#0 -684135616#0 -762107994#4 -762107994#3 -762107994#2 762107997 762107995#2 762107995#3 -762107995#3 -762107995#2 -762107997 762107994#2 762107994#3 762107994#4 762107994#5 684135616#1 775384756#1 775384756#2 775384756#3 775384756#4 775384756#5 775384756#6 775384756#7 775384756#8 1005819190 762107993 -208527108 -762107991#5 -762107991#4 -762107991#3 -762107991#2 -762107991#1 -762107991#0 -684135610#1"/>
    </vehicle>
    <vehicle depart="62604.25" departLane="best" id="tram23_61200" type="tram_tram">
        <route edges="-770742882#1 -770742882#0 -770742883#0 -770742891#1 -770742891#0 762107937 770742891#1 770742891#2 770742883#1 770742882#1 770742882#2 762107942#0 762107943#1 -684135607#3 684135608#0 684135608#1 684135608#2 684128574#1 762107952#1 762107952#2 762107952#3 762107952#5 762107952#6 773159594#1 773159594#2"/>
    </vehicle>
    <vehicle depart="62848.47" departLane="best" id="tram27_61200" type="tram_tram">
        <route edges="775384756#7 775384756#8 1005819190 762107993 -208527108 -762107991#5 -762107991#4 -762107991#3 -762107991#2 -762107991#1 -762107991#0 -684135610#1 -684135610#0 -762107989 -762107942#1 -762107942#0 762108005#1 -770742882#1 -770742882#0 -770742883#0 -770742891#1 -770742891#0 762107937 770742891#1 770742891#2 770742883#1 770742882#1 770742882#2 762107942#0 762107943#1 -684135607#3 684135608#0 684135608#1 762107944"/>
    </vehicle>
    <vehicle depart="62909.52" departLane="best" id="tram28_61200" type="tram_tram">
        <route edges="-762107991#5 -762107991#4 -762107991#3 -762107991#2 -762107991#1 -762107991#0 -684135610#1 -684135610#0 -762107989 -762107942#1 -762107942#0 762108005#1 -770742882#1 -770742882#0 -770742883#0 -770742891#1 -770742891#0 762107937 770742891#1 770742891#2 770742883#1 770742882#1 770742882#2 762107942#0 762107943#1 -684135607#3 684135608#0 684135608#1 684135608#2 762107954#0 762107954#1 762107954#3 762107957#9 762107957#10 762107957#11 684122873 684122874#1 684122874#2 762107958#0 762107959"/>
    </vehicle>
    <vehicle depart="62970.58" departLane="best" departSpeed="max" id="tram29_61200" type="tram_tram">
        <route edges="762107994#0 -1005819191 -762107995#2 -762107997 762107994#2 762107994#3 762107994#4 762107994#5 684135616#1 775384756#1 775384756#2 775384756#3 775384756#4 775384756#5 775384756#6 775384756#7 775384756#8 1005819190 762107993 -208527108 -762107991#5 -762107991#4 -762107991#3 -762107991#2 -762107991#1 -762107991#0 -684135610#1 -684135610#0 -762107989 -762107942#1 -762107942#0 762108005#1 -770742882#1 -770742882#0 -770742883#0 -770742891#1 -770742891#0 762107937 770742891#1 770742891#2 770742883#1 770742882#1 770742882#2 762107942#0 762107943#1 -684135607#3 684135608#0 684135608#1 684135608#2 762107954#0 762107954#1 762107954#3 762107957#9 762107957#10 762107957#11 684122873 684122874#1 684122874#2 684122874#3 684122874#4 684122874#5 684122874#6"/>
    </vehicle>
    <vehicle depart="63092.68" departLane="best" id="tram31_61200" type="tram_tram">
        <route edges="-1005819191 -762107995#2 -762107997 762107994#2 762107994#3 762107994#4 762107994#5 684135616#1 775384756#1 775384756#2 775384756#3 775384756#4 775384756#5 775384756#6 775384756#7 775384756#8 1005819190 762107993 -208527108 -762107991#5 -762107991#4 -762107991#3 -762107991#2 -762107991#1 -762107991#0 -684135610#1 -684135610#0 -762107989 -762107942#1 -762107942#0 762108005#1 -770742882#1 -770742882#0 -770742883#0 -770742891#1 -770742891#0 762107937 770742891#1 770742891#2 770742883#1 770742882#1 770742882#2 762107942#0 762107943#1 -684135607#3 684135608#0 684135608#1 684135608#2 762107954#0 762107954#1 762107954#3 762107957#9 762107957#10 762107957#11 684122873 684122874#1 684122874#2 684122874#3 684122874#4 684122874#5 684122874#6 684122870#1 684122870#2 684122870#3 684122870#4 762107973#0 762107973#1 762107972#1 762107981"/>
    </vehicle>
    <vehicle depart="63214.79" departLane="best" departSpeed="max" id="tram33_61200" type="tram_tram">
        <route edges="762107937 770742891#1 762107939 770742892#2 770742892#3 770742892#4 770742892#5 762107943#0 762107943#1 -684135607#3 684135608#0 684135608#1 684135608#2 684128574#1 762107952#1 762107952#2 762107952#3 762107952#5 762107952#6 773159594#1 773159594#2"/>
    </vehicle>
    <vehicle depart="63275.85" departLane="best" id="tram34_61200" type="tram_tram">
        <route edges="762108000#5 762108000#6 762108000#7 762108000#8 762108000#9 762107990#0 762107990#1 684135607#0 684135607#1 684135607#2 684135607#3 762108005#0 762108005#1 -770742882#1 -770742882#0 -770742883#0 -770742891#1 -762107938 -770742892#0"/>
    </vehicle>
    <vehicle depart="63397.96" departLane="best" id="tram36_61200" type="tram_tram">
        <route edges="762107990#0 762107990#1 684135607#0 684135607#1 684135607#2 684135607#3 762108005#0 762108005#1 -770742882#1 -770742882#0 -770742883#0 -770742891#1 -770742891#0 762107937 770742891#1 770742891#2 770742883#1 770742882#1 770742882#2 762107942#0 762107943#1 -684135607#3 684135608#0 684135608#1 684135608#2 762107954#0 762107954#1 762107954#3 762107957#9 762107957#10 762107957#11 684122873 684122874#1 684122874#2 684122874#3 684122874#4 684122874#5 684122874#6 684122870#1 684122870#2 684122870#3 684122870#4 684122870#5 684122870#6 762107971 762107970#1 684122864#2 684122864#3 762107953#4 762107953#5"/>
    </vehicle>
    <vehicle depart="63520.07" departLane="best" id="tram38_61200" type="tram_tram">
        <route edges="-1005819189#0 -762108000#9 -762108000#8 -762108000#7 -762108000#6 -762108000#5 -762108000#4 -762108000#2 -762108000#1 -762108000#0 -684135617 -775384756#7 -775384756#6 -775384756#5 -775384756#4 -775384756#3 -775384756#2 -775384756#1 -775384756#0 -684135616#0 -762107994#4 -762107994#3 -762107994#2 762107997 762107995#2 762107995#3 -762107995#3 -762107995#2 -762107997 762107994#2 762107994#3 762107994#4 762107994#5 684135616#1 775384756#1 775384756#2 775384756#3 775384756#4 775384756#5 775384756#6 775384756#7 684135617 762108000#0 762108000#1 762108000#2 762108000#4 762108000#5 762108000#6 762108000#7 762108000#8 762108000#9 1005819189#0 1005819189#1 1005819189#2 1005819189#3 762107991#1 762107991#2 762107991#3 762107991#4 762107991#5 208527108 762107999#0 762107999#1 762107999#2 762107999#3 762107999#4 762107999#5 762107999#6 762107999#7 762107999#8 624520076#1 624520076#2"/>
    </vehicle>
    <vehicle depart="63581.12" departLane="best" id="tram39_61200" type="tram_tram">
        <route edges="762108000#6 762108000#7 762108000#8 762108000#9 1005819189#0 1005819189#1 1005819189#2 -762108001#5 -762108001#4 -762108001#3 -762108001#2 -762108001#1 -762108001#0 -1005819190 -775384756#8 -775384756#7 -775384756#6 -775384756#5 -775384756#4 -775384756#3 -775384756#2 -775384756#1 -775384756#0 -684135616#0 -762107994#4 -762107994#3 -762107994#2 762107997 762107995#2 762107995#3"/>
    </vehicle>
    <vehicle depart="63703.23" departLane="best" id="tram41_61200" type="tram_tram">
        <route edges="762108000#6 762108000#7 762108000#8 762108000#9 762107990#0 762107990#1 684135607#0 684135607#1 684135607#2 684135607#3 762108005#0 762108005#1 -770742882#1 -770742882#0 -770742883#0 -770742891#1 -770742891#0 762107937 770742891#1 770742891#2 770742883#1 770742882#1 770742882#2 762107942#0 762107943#1 -684135607#3 684135608#0 684135608#1 684135608#2 684128574#1 762107952#1 762107952#2 762107952#3 762107952#5 762107952#6 773159594#1 773159594#2"/>
    </vehicle>
    <vehicle depart="63825.34" departLane="best" id="tram43_61200" type="tram_tram">
        <route edges="762107991#0 762107991#1 762107991#2 762107991#3 762107991#4 762107991#5 208527108 -762107993 -1005819190 -775384756#8 -775384756#7 -775384756#6 -775384756#5 -775384756#4 -775384756#3 -775384756#2 -775384756#1 -775384756#0 -684135616#0 -762107994#4 -762107994#3 -762107994#2 762107997 762107995#2 762107995#3 -762107995#3 -762107995#2"/>
    </vehicle>
    <vehicle depart="63947.45" departLane="best" id="tram45_61200" type="tram_tram">
        <route edges="775384756#6 775384756#7 775384756#8 1005819190 762107993 -208527108 -762107991#5 -762107991#4 -762107991#3 -762107991#2 -762107991#1 -762107991#0 -684135610#1 -684135610#0 -762107989 -762107942#1 -762107942#0 762108005#1 -770742882#1 -770742882#0 -770742883#0 -770742891#1 -770742891#0 762107937 770742891#1 770742891#2 770742883#1 770742882#1 770742882#2 762107942#0 762107943#1 -684135607#3 684135608#0 684135608#1 684135608#2 762107954#0 762107954#1 762107954#3 762107957#9 762107957#10 762107957#11 684122873 684122874#1 684122874#2 762107958#0 762107959 762107964#1"/>
    </vehicle>
    <vehicle depart="64008.5" departLane="best" id="tram46_61200" type="tram_tram">
        <route edges="-762107995#1 -762107995#0 -624520076#1 -624520076#0 762107996 684135616#1 775384756#1 775384756#2 775384756#3 775384756#4 775384756#5 775384756#6 775384756#7 775384756#8 1005819190 762107993 -208527108 -762107991#5 -762107991#4 -762107991#3 -762107991#2 -762107991#1 -762107991#0 -684135610#1 -684135610#0 -762107989 -762108004#1 -762108004#0 -770742892#4 -770742892#3 -770742892#2 -762107939 -770742891#1 -770742891#0"/>
    </vehicle>
    <vehicle depart="64069.55" departLane="best" id="tram47_61200" type="tram_tram">
        <route edges="-775384756#2 -775384756#1 -775384756#0 -684135616#0 -762107994#4 -762107994#3 -762107994#2 762107997 762107995#2 762107995#3 -762107995#3 -762107995#2 -762107997 762107994#2 762107994#3 762107994#4 762107994#5 684135616#1 775384756#1 775384756#2 775384756#3 775384756#4 775384756#5 775384756#6 775384756#7 775384756#8 1005819190 762107993 -208527108 -762107991#5 -762107991#4 -762107991#3 -762107991#2 -762107991#1 -762107991#0 -684135610#1 -684135610#0 -762107989 -762108004#1 -762108004#0 -770742892#4 -770742892#3 -770742892#2 -762107939 -770742891#1 -770742891#0"/>
    </vehicle>
    <vehicle depart="64130.61" departLane="best" id="tram48_61200" type="tram_tram">
        <route edges="-775384756#1 -775384756#0 -684135616#0 -762107994#4 -762107994#3 -762107994#2 762107997 762107995#2 762107995#3 -762107995#3 -762107995#2 -762107997 762107994#2 762107994#3 762107994#4 762107994#5 684135616#1 775384756#1 775384756#2 775384756#3 775384756#4 775384756#5 775384756#6 775384756#7 775384756#8 1005819190 762108001#0 762108001#1 762108001#2 762108001#3 762108001#4 762108001#5 762263967#0"/>
    </vehicle>
    <vehicle depart="64191.66" departLane="best" id="tram49_61200" type="tram_tram">
        <route edges="-775384756#5 -775384756#4 -775384756#3 -775384756#2 -775384756#1 -775384756#0 -684135616#0 -762107994#4 -762107994#3 -762107994#2 762107997 762107995#2 762107995#3 -762107995#3 -762107995#2 -762107997 762107994#2 762107994#3 762107994#4 762107994#5 684135616#1 775384756#1 775384756#2 775384756#3 775384756#4 775384756#5 775384756#6 775384756#7 775384756#8 1005819190 762107993 -208527108 -762107991#5 -762107991#4 -762107991#3 -762107991#2 -762107991#1 -762107991#0 -684135610#1 -684135610#0 -762107989 -762107942#1 -762107942#0 762108005#1 -770742882#1 -770742882#0 -770742883#0 -770742891#1 -770742891#0 762107937 770742891#1 770742891#2 770742883#1 770742882#1 770742882#2 762107942#0 762107943#1 -684135607#3 684135608#0 684135608#1 684135608#2 762107954#0 762107954#1 762107954#3 762107957#9 762107957#10 762107957#11 684122873 684122874#1 684122874#2 762107958#0 762107959 762107964#1"/>
    </vehicle>
    <vehicle depart="64252.72" departLane="best" id="tram50_61200" type="tram_tram">
        <route edges="-770742883#0 -770742891#1 -770742891#0 762107937 770742891#1 762107939 770742892#2 770742892#3 770742892#4 770742892#5 762108004#1 762107941 684135610#0 684135610#1 762107991#0 762107991#1 762107991#2 762107991#3 762107991#4 762107991#5 208527108 -762107993 -1005819190 -775384756#8 -775384756#7 -775384756#6 -775384756#5 -775384756#4 -775384756#3 -775384756#2 -775384756#1 -775384756#0 -684135616#0 -762107994#4 -762107994#3 -762107994#2 762107997 762107995#2 762107995#3 -762107995#3 -762107995#2 -762107997"/>
    </vehicle>
    <vehicle depart="64313.77" departLane="best" departSpeed="max" id="tram51_61200" type="tram_tram">
        <route edges="774852773#0 774852773#1 774852773#2 762107957#1 762107957#3 762107957#4 762107957#5"/>
    </vehicle>
    <vehicle depart="64374.83" departLane="best" departSpeed="max" id="tram52_61200" type="tram_tram">
        <route edges="762107937 770742891#1 762107939 770742892#2 770742892#3 770742892#4 770742892#5 762108004#1 762107941 684135610#0 684135610#1 762107991#0 762107991#1 762107991#2 762107991#3 762107991#4 762107991#5 208527108 762107999#0 762107999#1 762107999#2 762107999#3 762107999#4 762107999#5 762107999#6 762107999#7 762107999#8 624520076#1 624520076#2 762107995#1"/>
    </vehicle>
    <vehicle depart="64435.88" departLane="best" departSpeed="max" id="tram53_61200" type="tram_tram">
        <route edges="762107994#0 -1005819191 -762107995#2 -762107997 762107994#2 762107994#3 762107994#4 762107994#5 684135616#1 775384756#1 775384756#2 775384756#3 775384756#4 775384756#5 775384756#6 775384756#7 775384756#8 1005819190 762107993 -208527108 -762107991#5 -762107991#4 -762107991#3 -762107991#2 -762107991#1 -762107991#0 -684135610#1 -684135610#0 -762107989 -762108004#1 -762108004#0 -770742892#4 -770742892#3 -770742892#2 -762107939 -770742891#1 -770742891#0"/>
    </vehicle>
    <vehicle depart="64496.93" departLane="best" departSpeed="max" id="tram54_61200" type="tram_tram">
        <route edges="762107988 762107957#4 762107957#5 762107957#6 762107957#8 762107957#9 762107957#10 762107957#11 684122873 684122874#1 684122874#2 762107958#0 762107959 762107964#1"/>
    </vehicle>
    <vehicle depart="64557.99" departLane="best" id="tram55_61200" type="tram_tram">
        <route edges="775384756#1 775384756#2 775384756#3 775384756#4 775384756#5 775384756#6 775384756#7 775384756#8 1005819190 762108001#0 762108001#1 762108001#2 762108001#3 762108001#4 762108001#5 -1005819189#2 -1005819189#1 -1005819189#0 -762108000#9 -762108000#8 -762108000#7 -762108000#6 -762108000#5 -762108000#4 -762108000#2 -762108000#1 -762108000#0 -684135617 -775384756#7 -775384756#6 -775384756#5 -775384756#4 -775384756#3 -775384756#2 -775384756#1 -775384756#0 -684135616#0 -762107994#4 -762107994#3 -762107994#2 762107997 762107995#2 1005819191 -762107994#0"/>
    </vehicle>
    <vehicle depart="64619.04" departLane="best" id="tram56_61200" type="tram_tram">
        <route edges="762107999#6 762107999#7 762107999#8 624520076#1 624520076#2 762107995#1 762107995#2 762107995#3 -762107995#3 -762107995#2 -762107995#1 -762107995#0 -624520076#1 -624520076#0 762107996 684135616#1 775384756#1 775384756#2 775384756#3 775384756#4 775384756#5 775384756#6 775384756#7 775384756#8 1005819190 762107993 -208527108 -762107991#5 -762107991#4 -762107991#3 -762107991#2 -762107991#1 -762107991#0 -684135610#1 -684135610#0 -762107989 -762108004#1 -762108004#0 -770742892#4 -770742892#3 -770742892#2 -770742892#1 -770742892#0"/>
    </vehicle>
    <vehicle depart="64680.1" departLane="best" departSpeed="max" id="tram57_61200" type="tram_tram">
        <route edges="762107937 770742891#1 762107939 770742892#2 770742892#3 770742892#4 770742892#5 762108004#1 762107941 684135610#0 684135610#1 762107991#0 762107991#1 762107991#2 762107991#3 762107991#4 762107991#5 208527108 -762107993 -1005819190 762107992 762108000#0"/>
    </vehicle>
</routes>
