<?xml version="1.0" encoding="UTF-8"?>

<!-- generated on 2022-05-18 13:11:44 by Eclipse SUMO duarouter Version 1.13.0
<configuration xmlns:xsi="http://www.w3.org/2001/XMLSchema-instance" xsi:noNamespaceSchemaLocation="http://sumo.dlr.de/xsd/duarouterConfiguration.xsd">

    <input>
        <net-file value="C:\Users\abdel\Sumo\2022-05-18-13-10-58\ec.net.xml"/>
        <route-files value="C:\Users\abdel\Sumo\2022-05-18-13-10-58\ec.bus.trips.xml"/>
    </input>

    <output>
        <output-file value="C:\Users\abdel\Sumo\2022-05-18-13-10-58\ec.bus.trips.xml.tmp"/>
        <write-trips value="true"/>
    </output>

    <time>
        <begin value="0"/>
        <end value="3600"/>
    </time>

    <report>
        <no-warnings value="true"/>
        <ignore-errors value="true"/>
        <no-step-log value="true"/>
    </report>

</configuration>
-->

<routes xmlns:xsi="http://www.w3.org/2001/XMLSchema-instance" xsi:noNamespaceSchemaLocation="http://sumo.dlr.de/xsd/routes_file.xsd">
    <vType id="bus_bus" vClass="bus"/>
    <trip id="bus0" type="bus_bus" depart="0.00" departLane="best" from="479613108#3" to="-155033028#0"/>
    <trip id="bus3" type="bus_bus" depart="8.08" departLane="best" from="625418509" to="-255416216#0"/>
    <trip id="bus4" type="bus_bus" depart="10.77" departLane="best" from="156148401#1" to="-156148432#0"/>
    <trip id="bus5" type="bus_bus" depart="13.47" departLane="best" departSpeed="max" from="-480252897#2" to="216060954#2"/>
    <trip id="bus8" type="bus_bus" depart="21.55" departLane="best" from="-480276564" to="26234533#0"/>
    <trip id="bus9" type="bus_bus" depart="24.24" departLane="best" from="491638583#2" to="-100646245#3"/>
    <trip id="bus10" type="bus_bus" depart="26.93" departLane="best" from="491631422#9" to="479797295"/>
    <trip id="bus11" type="bus_bus" depart="29.63" departLane="best" departSpeed="max" from="1036346145" to="-479621752#1"/>
    <trip id="bus12" type="bus_bus" depart="32.32" departLane="best" from="773876912#1" to="1036341350#4"/>
    <trip id="bus13" type="bus_bus" depart="35.01" departLane="best" from="-248698668#11" to="-255416251#1"/>
    <trip id="bus14" type="bus_bus" depart="37.71" departLane="best" from="621270415" to="320758139"/>
    <!--<trip id="bus16" type="bus_bus" depart="43.09" departLane="best" from="255416150" to="854000999#1"/>-->
    <trip id="bus17" type="bus_bus" depart="45.79" departLane="best" from="1040942048" to="255416142#0"/>
    <trip id="bus18" type="bus_bus" depart="48.48" departLane="best" from="61163710#13" to="321073946"/>
    <trip id="bus19" type="bus_bus" depart="51.17" departLane="best" from="622873934#9" to="25934337#3"/>
    <trip id="bus20" type="bus_bus" depart="53.87" departLane="best" departSpeed="max" from="479797324#0" to="-178774202#1"/>
    <trip id="bus21" type="bus_bus" depart="56.56" departLane="best" from="-480284577" to="100646245#1"/>
    <trip id="bus23" type="bus_bus" depart="61.95" departLane="best" from="-255416167" to="-684135634#2"/>
    <trip id="bus24" type="bus_bus" depart="64.64" departLane="best" from="479613101#1" to="1039159932#1"/>
    <trip id="bus25" type="bus_bus" depart="67.34" departLane="best" from="1040603779" to="-480282280"/>
    <trip id="bus26" type="bus_bus" depart="70.03" departLane="best" from="-625413768#0" to="742718536#2"/>
    <trip id="bus27" type="bus_bus" depart="72.72" departLane="best" departSpeed="max" from="479621752#0" to="321071861#2"/>
    <trip id="bus28" type="bus_bus" depart="75.42" departLane="best" from="-479621763#9" to="479816722#1"/>
    <trip id="bus30" type="bus_bus" depart="80.80" departLane="best" from="901285521" to="475316658#2"/>
    <trip id="bus31" type="bus_bus" depart="83.50" departLane="best" from="618364867#1" to="481854596#3"/>
    <trip id="bus34" type="bus_bus" depart="91.58" departLane="best" departSpeed="max" from="-480250299#1" to="742727472"/>
    <trip id="bus36" type="bus_bus" depart="96.96" departLane="best" from="479621763#11" to="1041542913"/>
    <trip id="bus37" type="bus_bus" depart="99.66" departLane="best" from="684122862#2" to="159453450#3"/>
    <trip id="bus38" type="bus_bus" depart="102.35" departLane="best" from="-623891515#0" to="-491638583#9"/>
    <trip id="bus40" type="bus_bus" depart="107.74" departLane="best" departSpeed="max" from="320755659#0" to="658079962#0"/>
    <trip id="bus41" type="bus_bus" depart="110.43" departLane="best" from="1042449167" to="-480284576#4"/>
    <trip id="bus42" type="bus_bus" depart="113.12" departLane="best" from="994962124#6" to="216065938#2"/>
    <trip id="bus43" type="bus_bus" depart="115.82" departLane="best" departSpeed="max" from="-248698667#1" to="-178774212#0"/>
    <trip id="bus44" type="bus_bus" depart="118.51" departLane="best" from="-255416245#1" to="379986768"/>
    <trip id="bus47" type="bus_bus" depart="126.59" departLane="best" from="994962124#2" to="235427542#4"/>
    <trip id="bus48" type="bus_bus" depart="129.28" departLane="best" from="854001001#0" to="622873934#0"/>
    <trip id="bus49" type="bus_bus" depart="131.98" departLane="best" from="-100646264#1" to="479797348#1"/>
    <trip id="bus51" type="bus_bus" depart="137.36" departLane="best" from="-625413768#0" to="475319370"/>
    <trip id="bus52" type="bus_bus" depart="140.06" departLane="best" from="-255416251#2" to="156148402#2"/>
    <trip id="bus53" type="bus_bus" depart="142.75" departLane="best" from="159455874#3" to="765467136"/>
    <trip id="bus54" type="bus_bus" depart="145.44" departLane="best" from="623891508#5" to="-623128866#0"/>
    <trip id="bus55" type="bus_bus" depart="148.14" departLane="best" from="224737852#5" to="-479797310#4"/>
    <trip id="bus56" type="bus_bus" depart="150.83" departLane="best" from="665453549" to="623134300"/>
    <trip id="bus57" type="bus_bus" depart="153.52" departLane="best" from="100646260#3" to="475316653#5"/>
    <trip id="bus58" type="bus_bus" depart="156.22" departLane="best" departSpeed="max" from="323563856" to="-479621751#0"/>
    <trip id="bus63" type="bus_bus" depart="169.69" departLane="best" from="623891515#1" to="61163710#2"/>
    <trip id="bus64" type="bus_bus" depart="172.38" departLane="best" from="1032987570#2" to="-216065938#4"/>
    <trip id="bus65" type="bus_bus" depart="175.07" departLane="best" from="623891514" to="742727484#3"/>
    <trip id="bus68" type="bus_bus" depart="183.15" departLane="best" from="178774196#2" to="248698673#3"/>
    <trip id="bus69" type="bus_bus" depart="185.85" departLane="best" from="-623891515#0" to="623474397#0"/>
    <trip id="bus70" type="bus_bus" depart="188.54" departLane="best" from="156148401#5" to="-480282284"/>
    <trip id="bus73" type="bus_bus" depart="196.62" departLane="best" from="994962122" to="479613108#1"/>
    <trip id="bus74" type="bus_bus" depart="199.31" departLane="best" from="156148432#1" to="224737852#6"/>
    <trip id="bus76" type="bus_bus" depart="204.70" departLane="best" departSpeed="max" from="-480292013" to="-480284577"/>
    <trip id="bus79" type="bus_bus" depart="212.78" departLane="best" from="-486831708#1" to="479621774#1"/>
    <trip id="bus81" type="bus_bus" depart="218.17" departLane="best" from="742718536#1" to="256157285"/>
    <trip id="bus82" type="bus_bus" depart="220.86" departLane="best" from="178774191#1" to="486831708#2"/>
    <trip id="bus84" type="bus_bus" depart="226.25" departLane="best" departSpeed="max" from="-248698670#2" to="156148398#1"/>
    <trip id="bus85" type="bus_bus" depart="228.94" departLane="best" from="156148401#6" to="159455875#1"/>
    <trip id="bus86" type="bus_bus" depart="231.63" departLane="best" from="480250293#1" to="479751369#7"/>
    <trip id="bus88" type="bus_bus" depart="237.02" departLane="best" from="1042676041" to="1036341354#0"/>
    <trip id="bus89" type="bus_bus" depart="239.71" departLane="best" from="622873934#9" to="-538068339#5"/>
    <trip id="bus90" type="bus_bus" depart="242.41" departLane="best" from="-479797311#0" to="156148432#1"/>
    <trip id="bus91" type="bus_bus" depart="245.10" departLane="best" from="156148401#1" to="-742727485"/>
    <trip id="bus93" type="bus_bus" depart="250.49" departLane="best" from="159453447#9" to="622873934#2"/>
    <trip id="bus95" type="bus_bus" depart="255.87" departLane="best" from="996026061#1" to="61163715#6"/>
    <trip id="bus97" type="bus_bus" depart="261.26" departLane="best" from="622804127" to="-479797239#1"/>
    <trip id="bus98" type="bus_bus" depart="263.96" departLane="best" from="178774223#1" to="-480283416#1"/>
    <trip id="bus99" type="bus_bus" depart="266.65" departLane="best" from="1042453357" to="-216065940#1"/>
    <trip id="bus100" type="bus_bus" depart="269.34" departLane="best" from="1040942049" to="854052897#3"/>
    <trip id="bus101" type="bus_bus" depart="272.04" departLane="best" from="-623891515#1" to="486825027#2"/>
    <trip id="bus102" type="bus_bus" depart="274.73" departLane="best" from="159455874#7" to="123423117#2"/>
    <trip id="bus104" type="bus_bus" depart="280.12" departLane="best" from="256157283#0" to="479797341#1"/>
    <trip id="bus105" type="bus_bus" depart="282.81" departLane="best" departSpeed="max" from="-479613101#9" to="100646295#0"/>
    <trip id="bus106" type="bus_bus" depart="285.50" departLane="best" from="854000997" to="25934378#1"/>
    <trip id="bus108" type="bus_bus" depart="290.89" departLane="best" departSpeed="max" from="-178774202#2" to="25934381#5"/>
    <trip id="bus109" type="bus_bus" depart="293.58" departLane="best" from="224737854#4" to="622804124#1"/>
    <trip id="bus110" type="bus_bus" depart="296.28" departLane="best" from="-479613108#3" to="773876918"/>
    <trip id="bus111" type="bus_bus" depart="298.97" departLane="best" from="-235427740#0" to="-479797347#0"/>
    <trip id="bus112" type="bus_bus" depart="301.66" departLane="best" from="321071861#0" to="479751865#1"/>
    <trip id="bus113" type="bus_bus" depart="304.36" departLane="best" departSpeed="max" from="-483796488#2" to="-320758141"/>
    <trip id="bus114" type="bus_bus" depart="307.05" departLane="best" from="625413785#3" to="-491638583#8"/>
    <trip id="bus115" type="bus_bus" depart="309.74" departLane="best" from="320758140#1" to="321073946"/>
    <trip id="bus116" type="bus_bus" depart="312.44" departLane="best" from="156148397#2" to="25934381#4"/>
    <trip id="bus117" type="bus_bus" depart="315.13" departLane="best" departSpeed="max" from="248698667#0" to="742718533"/>
    <trip id="bus118" type="bus_bus" depart="317.82" departLane="best" departSpeed="max" from="-480250293#2" to="479797327#3"/>
    <trip id="bus119" type="bus_bus" depart="320.52" departLane="best" from="-486831710#0" to="1041542914#0"/>
    <trip id="bus122" type="bus_bus" depart="328.60" departLane="best" from="-216065938#4" to="159453450#2"/>
    <trip id="bus123" type="bus_bus" depart="331.29" departLane="best" from="-216065940#1" to="-480283416#0"/>
    <trip id="bus124" type="bus_bus" depart="333.98" departLane="best" from="-623891515#1" to="742718532#4"/>
    <trip id="bus125" type="bus_bus" depart="336.68" departLane="best" from="625351513" to="623891504#5"/>
    <trip id="bus126" type="bus_bus" depart="339.37" departLane="best" from="1040591006#6" to="-479621763#10"/>
    <trip id="bus127" type="bus_bus" depart="342.06" departLane="best" departSpeed="max" from="61163715#0" to="479797310#10"/>
    <trip id="bus128" type="bus_bus" depart="344.76" departLane="best" departSpeed="max" from="379986688#0" to="854052902"/>
    <trip id="bus129" type="bus_bus" depart="347.45" departLane="best" from="479751369#6" to="742718538#5"/>
    <trip id="bus130" type="bus_bus" depart="350.14" departLane="best" from="-379986688#5" to="-320755658#1"/>
    <trip id="bus131" type="bus_bus" depart="352.84" departLane="best" from="-658095569#3" to="320758139"/>
    <trip id="bus133" type="bus_bus" depart="358.22" departLane="best" from="475319390#0" to="-623128866#0"/>
    <trip id="bus135" type="bus_bus" depart="363.61" departLane="best" from="618371800" to="-255416224#3"/>
    <trip id="bus137" type="bus_bus" depart="369.00" departLane="best" departSpeed="max" from="-100646234" to="481854583#3"/>
    <trip id="bus140" type="bus_bus" depart="377.08" departLane="best" from="156148407#2" to="-100646258#1"/>
    <trip id="bus141" type="bus_bus" depart="379.77" departLane="best" departSpeed="max" from="-234517427#4" to="625313299"/>
    <trip id="bus142" type="bus_bus" depart="382.47" departLane="best" from="61163715#10" to="25934381#0"/>
    <trip id="bus144" type="bus_bus" depart="387.85" departLane="best" from="490216937#1" to="622873934#0"/>
    <trip id="bus146" type="bus_bus" depart="393.24" departLane="best" from="-538068339#1" to="-25934355#1"/>
    <trip id="bus148" type="bus_bus" depart="398.63" departLane="best" from="1042695124" to="321073948"/>
    <trip id="bus149" type="bus_bus" depart="401.32" departLane="best" from="-479613101#8" to="742718527#0"/>
    <trip id="bus150" type="bus_bus" depart="404.01" departLane="best" from="622902051#0" to="854001005#1"/>
    <trip id="bus151" type="bus_bus" depart="406.71" departLane="best" from="491638583#6" to="623891513"/>
    <trip id="bus152" type="bus_bus" depart="409.40" departLane="best" departSpeed="max" from="-1039220886" to="480250290"/>
    <trip id="bus154" type="bus_bus" depart="414.79" departLane="best" from="491628727#1" to="622880033"/>
    <trip id="bus155" type="bus_bus" depart="417.48" departLane="best" from="491638583#6" to="-623891515#1"/>
    <trip id="bus156" type="bus_bus" depart="420.17" departLane="best" departSpeed="max" from="490151559" to="-25934385#0"/>
    <trip id="bus158" type="bus_bus" depart="425.56" departLane="best" from="159455892#5" to="1032987585"/>
    <trip id="bus159" type="bus_bus" depart="428.25" departLane="best" from="490216937#0" to="-483726628#3"/>
    <trip id="bus160" type="bus_bus" depart="430.95" departLane="best" departSpeed="max" from="-1038286772" to="-480250295#0"/>
    <trip id="bus161" type="bus_bus" depart="433.64" departLane="best" from="1036341350#2" to="622880034"/>
    <trip id="bus163" type="bus_bus" depart="439.03" departLane="best" from="479621745#0" to="1042254212#1"/>
    <trip id="bus165" type="bus_bus" depart="444.41" departLane="best" from="742718539#0" to="-320755658#1"/>
    <trip id="bus166" type="bus_bus" depart="447.11" departLane="best" from="854001000#0" to="-479797310#4"/>
    <trip id="bus167" type="bus_bus" depart="449.80" departLane="best" from="775122578#6" to="-623891502#0"/>
    <trip id="bus168" type="bus_bus" depart="452.49" departLane="best" departSpeed="max" from="-255416229#3" to="156148402#1"/>
    <trip id="bus170" type="bus_bus" depart="457.88" departLane="best" departSpeed="max" from="323563821#0" to="224737848#1"/>
    <trip id="bus171" type="bus_bus" depart="460.57" departLane="best" departSpeed="max" from="1041504064" to="25931950-AddedOffRampEdge"/>
    <trip id="bus172" type="bus_bus" depart="463.27" departLane="best" from="-61163715#6" to="479797313#0"/>
    <trip id="bus173" type="bus_bus" depart="465.96" departLane="best" from="-100646220#0" to="696730628#1"/>
    <trip id="bus177" type="bus_bus" depart="476.74" departLane="best" from="479751369#8" to="1036099957"/>
    <trip id="bus178" type="bus_bus" depart="479.43" departLane="best" from="1036062886#1" to="618371802"/>
    <trip id="bus179" type="bus_bus" depart="482.12" departLane="best" departSpeed="max" from="479812147#0" to="1032665742"/>
    <trip id="bus181" type="bus_bus" depart="487.51" departLane="best" from="1042676040" to="100646269#0"/>
    <trip id="bus184" type="bus_bus" depart="495.59" departLane="best" from="-100646217#0" to="100646220#3"/>
    <trip id="bus185" type="bus_bus" depart="498.28" departLane="best" from="156148418" to="25934378#3"/>
    <trip id="bus186" type="bus_bus" depart="500.98" departLane="best" from="479621758#5" to="159455874#5"/>
    <trip id="bus187" type="bus_bus" depart="503.67" departLane="best" from="159453447#4" to="-480283416#0"/>
    <trip id="bus188" type="bus_bus" depart="506.36" departLane="best" from="178774191#2" to="658095569#2"/>
    <trip id="bus189" type="bus_bus" depart="509.06" departLane="best" from="490216937#1" to="-479797258#4"/>
    <trip id="bus190" type="bus_bus" depart="511.75" departLane="best" from="-248698662" to="224737852#0"/>
    <trip id="bus191" type="bus_bus" depart="514.44" departLane="best" from="475319376" to="1036341350#0"/>
    <trip id="bus194" type="bus_bus" depart="522.52" departLane="best" from="-479816725#0" to="-145126358#1"/>
    <trip id="bus195" type="bus_bus" depart="525.22" departLane="best" from="-490622218#1" to="166563426#3"/>
    <trip id="bus197" type="bus_bus" depart="530.60" departLane="best" from="123423117#6" to="47070283#0"/>
    <trip id="bus198" type="bus_bus" depart="533.30" departLane="best" from="-479797345#1" to="479797283#6"/>
    <trip id="bus199" type="bus_bus" depart="535.99" departLane="best" from="479621763#12" to="-100646245#1"/>
    <trip id="bus202" type="bus_bus" depart="544.07" departLane="best" from="-479797239#0" to="773159597#2"/>
    <trip id="bus203" type="bus_bus" depart="546.76" departLane="best" from="-538068339#0" to="618371803"/>
    <trip id="bus204" type="bus_bus" depart="549.46" departLane="best" from="159455875#1" to="491628727#0"/>
    <trip id="bus206" type="bus_bus" depart="554.84" departLane="best" from="321071861#1" to="765449928"/>
    <trip id="bus207" type="bus_bus" depart="557.54" departLane="best" from="625413787" to="321073225#4"/>
    <trip id="bus208" type="bus_bus" depart="560.23" departLane="best" departSpeed="max" from="479812147#0" to="216060954#0"/>
    <trip id="bus210" type="bus_bus" depart="565.62" departLane="best" from="658095569#2" to="480250296#3"/>
    <trip id="bus211" type="bus_bus" depart="568.31" departLane="best" from="178774196#0" to="-622804129#0"/>
    <trip id="bus212" type="bus_bus" depart="571.01" departLane="best" from="-491638583#4" to="475316653#1"/>
    <trip id="bus213" type="bus_bus" depart="573.70" departLane="best" from="481854583#4" to="234517427#4"/>
    <trip id="bus215" type="bus_bus" depart="579.09" departLane="best" from="-235427542#2" to="100646217#4"/>
    <trip id="bus216" type="bus_bus" depart="581.78" departLane="best" from="-658095569#1" to="1036076521"/>
    <trip id="bus217" type="bus_bus" depart="584.47" departLane="best" departSpeed="max" from="-480292013" to="479797282#3"/>
    <trip id="bus219" type="bus_bus" depart="589.86" departLane="best" from="145126347" to="-480252898"/>
    <trip id="bus220" type="bus_bus" depart="592.55" departLane="best" from="156148397#5" to="665446768"/>
    <trip id="bus221" type="bus_bus" depart="595.25" departLane="best" departSpeed="max" from="320755659#0" to="479797283#4"/>
    <trip id="bus224" type="bus_bus" depart="603.33" departLane="best" departSpeed="max" from="1038108482" to="480252897#1"/>
    <trip id="bus225" type="bus_bus" depart="606.02" departLane="best" departSpeed="max" from="622809059#0" to="765467135"/>
    <trip id="bus226" type="bus_bus" depart="608.71" departLane="best" from="156148397#2" to="480250304"/>
    <trip id="bus228" type="bus_bus" depart="614.10" departLane="best" from="-480276564" to="-480284576#4"/>
    <trip id="bus229" type="bus_bus" depart="616.79" departLane="best" from="1036341360#1" to="479797237#0"/>
    <trip id="bus230" type="bus_bus" depart="619.49" departLane="best" from="1042693363#0" to="-479772308#0"/>
    <trip id="bus231" type="bus_bus" depart="622.18" departLane="best" from="178774189#10" to="-47070283#4"/>
    <trip id="bus233" type="bus_bus" depart="627.57" departLane="best" from="1041542915#1" to="255416229#3"/>
    <trip id="bus234" type="bus_bus" depart="630.26" departLane="best" departSpeed="max" from="-1040603784" to="475319377"/>
    <trip id="bus235" type="bus_bus" depart="632.95" departLane="best" from="-379986778#0" to="159453472#4"/>
    <trip id="bus236" type="bus_bus" depart="635.65" departLane="best" from="-178774191#0" to="1040925855#4"/>
    <trip id="bus239" type="bus_bus" depart="643.73" departLane="best" from="480284570" to="61163710#3"/>
    <trip id="bus240" type="bus_bus" depart="646.42" departLane="best" from="-573745607" to="-255416150"/>
    <trip id="bus242" type="bus_bus" depart="651.81" departLane="best" from="996026062#1" to="1036352686"/>
    <trip id="bus244" type="bus_bus" depart="657.19" departLane="best" from="479621757#0" to="480252897#2"/>
    <trip id="bus247" type="bus_bus" depart="665.27" departLane="best" departSpeed="max" from="-320755659#1" to="479621774#2"/>
    <trip id="bus248" type="bus_bus" depart="667.97" departLane="best" from="25931937" to="-480284576#0"/>
    <trip id="bus250" type="bus_bus" depart="673.36" departLane="best" from="-479621763#10" to="321071860"/>
    <trip id="bus253" type="bus_bus" depart="681.44" departLane="best" departSpeed="max" from="-255416229#3" to="-156148407#0"/>
    <trip id="bus255" type="bus_bus" depart="686.82" departLane="best" from="773876919#3" to="1041542915#0"/>
    <trip id="bus257" type="bus_bus" depart="692.21" departLane="best" from="479797302" to="379986754"/>
    <trip id="bus259" type="bus_bus" depart="697.60" departLane="best" from="-25934381#4" to="854052896#1"/>
    <trip id="bus260" type="bus_bus" depart="700.29" departLane="best" departSpeed="max" from="489622223#0" to="1036342983"/>
    <trip id="bus261" type="bus_bus" depart="702.98" departLane="best" from="156148410" to="1040591006#0"/>
    <trip id="bus262" type="bus_bus" depart="705.68" departLane="best" from="235424958#4" to="1036341357#1"/>
    <trip id="bus265" type="bus_bus" depart="713.76" departLane="best" from="479613101#0" to="61163672"/>
    <trip id="bus266" type="bus_bus" depart="716.45" departLane="best" from="479797327#2" to="156148402#4"/>
    <trip id="bus267" type="bus_bus" depart="719.14" departLane="best" departSpeed="max" from="480250298#0" to="775122578#6"/>
    <trip id="bus268" type="bus_bus" depart="721.84" departLane="best" departSpeed="max" from="-625452610" to="491638583#0"/>
    <trip id="bus270" type="bus_bus" depart="727.22" departLane="best" from="156148427" to="479816725#1"/>
    <trip id="bus271" type="bus_bus" depart="729.92" departLane="best" departSpeed="max" from="-625413768#3" to="622804124#1"/>
    <trip id="bus272" type="bus_bus" depart="732.61" departLane="best" from="61163710#3" to="-255416215#1"/>
    <trip id="bus273" type="bus_bus" depart="735.30" departLane="best" departSpeed="max" from="625397297" to="-491638583#1"/>
    <trip id="bus274" type="bus_bus" depart="738.00" departLane="best" from="1040942049" to="-156148422#4"/>
    <trip id="bus275" type="bus_bus" depart="740.69" departLane="best" from="622804129#1" to="-479797311#7"/>
    <trip id="bus277" type="bus_bus" depart="746.08" departLane="best" departSpeed="max" from="1036346145" to="623891510"/>
    <trip id="bus279" type="bus_bus" depart="751.46" departLane="best" from="-100646260#0" to="743386900"/>
    <trip id="bus280" type="bus_bus" depart="754.16" departLane="best" from="-248698663#1" to="479797347#2"/>
    <trip id="bus281" type="bus_bus" depart="756.85" departLane="best" from="216060954#1" to="480282281#1"/>
    <trip id="bus282" type="bus_bus" depart="759.54" departLane="best" from="479797302" to="479613101#3"/>
    <trip id="bus283" type="bus_bus" depart="762.24" departLane="best" from="216065930#2" to="490192688#6"/>
    <trip id="bus284" type="bus_bus" depart="764.93" departLane="best" from="479797305#2" to="1032987588"/>
    <trip id="bus285" type="bus_bus" depart="767.62" departLane="best" departSpeed="max" from="320755658#0" to="159457890#3"/>
    <trip id="bus286" type="bus_bus" depart="770.32" departLane="best" from="248698673#2" to="123423119#2"/>
    <trip id="bus288" type="bus_bus" depart="775.71" departLane="best" from="479797319#0" to="-625452612"/>
    <trip id="bus290" type="bus_bus" depart="781.09" departLane="best" from="-479797318#1" to="-320758140#1"/>
    <trip id="bus291" type="bus_bus" depart="783.79" departLane="best" from="255416142#7" to="480284576#2"/>
    <trip id="bus293" type="bus_bus" depart="789.17" departLane="best" from="178774220#2" to="479812137#1"/>
    <trip id="bus294" type="bus_bus" depart="791.87" departLane="best" from="854040751" to="235424958#6"/>
    <trip id="bus295" type="bus_bus" depart="794.56" departLane="best" departSpeed="max" from="-856908280" to="-256157278#0"/>
    <trip id="bus296" type="bus_bus" depart="797.25" departLane="best" from="-479797345#0" to="-483726628#2"/>
    <trip id="bus299" type="bus_bus" depart="805.33" departLane="best" from="854030732" to="255416142#4"/>
    <trip id="bus300" type="bus_bus" depart="808.03" departLane="best" from="479797311#7" to="-47070283#0"/>
    <trip id="bus302" type="bus_bus" depart="813.41" departLane="best" from="178774189#17" to="156148418"/>
    <trip id="bus303" type="bus_bus" depart="816.11" departLane="best" from="-479797300#3" to="-208513727#1"/>
    <trip id="bus304" type="bus_bus" depart="818.80" departLane="best" from="742727470" to="166563429#7"/>
    <trip id="bus305" type="bus_bus" depart="821.49" departLane="best" from="583797089#0" to="1042330334"/>
    <trip id="bus306" type="bus_bus" depart="824.19" departLane="best" from="-234517427#2" to="390383583#4"/>
    <trip id="bus307" type="bus_bus" depart="826.88" departLane="best" from="-178774197#0" to="-479621745#2"/>
    <trip id="bus308" type="bus_bus" depart="829.57" departLane="best" from="994962121#1" to="-320758120"/>
    <trip id="bus309" type="bus_bus" depart="832.27" departLane="best" from="481854581#0" to="321071860"/>
    <trip id="bus311" type="bus_bus" depart="837.65" departLane="best" departSpeed="max" from="248698667#0" to="159453447#11"/>
    <trip id="bus312" type="bus_bus" depart="840.35" departLane="best" from="159453447#8" to="622873931#8"/>
    <trip id="bus313" type="bus_bus" depart="843.04" departLane="best" from="903284464" to="1032987586"/>
    <trip id="bus316" type="bus_bus" depart="851.12" departLane="best" departSpeed="max" from="-480250296#3" to="-480282282"/>
    <trip id="bus318" type="bus_bus" depart="856.51" departLane="best" from="-100646220#3" to="159453447#11"/>
    <trip id="bus319" type="bus_bus" depart="859.20" departLane="best" from="320758130#2" to="100646248#2"/>
    <trip id="bus320" type="bus_bus" depart="861.89" departLane="best" from="-480475790#0" to="479797311#2"/>
    <trip id="bus321" type="bus_bus" depart="864.59" departLane="best" from="479797319#0" to="159453448#0"/>
    <trip id="bus322" type="bus_bus" depart="867.28" departLane="best" from="479797286" to="696730624"/>
    <trip id="bus323" type="bus_bus" depart="869.97" departLane="best" departSpeed="max" from="490165001#0" to="379986745"/>
    <trip id="bus324" type="bus_bus" depart="872.67" departLane="best" from="479751367#0" to="742718532#5"/>
    <trip id="bus328" type="bus_bus" depart="883.44" departLane="best" from="-479621757#0" to="1033968712"/>
    <trip id="bus330" type="bus_bus" depart="888.83" departLane="best" departSpeed="max" from="100639942#0" to="-379986746#1"/>
    <trip id="bus332" type="bus_bus" depart="894.22" departLane="best" from="216065938#4" to="-255416142#2"/>
    <trip id="bus333" type="bus_bus" depart="896.91" departLane="best" from="-156148432#0" to="156148401#1"/>
    <trip id="bus335" type="bus_bus" depart="902.30" departLane="best" departSpeed="max" from="-248698667#1" to="773876919#5"/>
    <trip id="bus337" type="bus_bus" depart="907.68" departLane="best" from="765467135" to="996026062#0"/>
    <trip id="bus338" type="bus_bus" depart="910.38" departLane="best" from="479797247" to="-625397297"/>
    <trip id="bus339" type="bus_bus" depart="913.07" departLane="best" from="-156148432#1" to="480276563"/>
    <trip id="bus340" type="bus_bus" depart="915.76" departLane="best" from="178774189#4" to="479613108#5"/>
    <trip id="bus341" type="bus_bus" depart="918.46" departLane="best" from="684128578#3" to="-479797311#6"/>
    <trip id="bus342" type="bus_bus" depart="921.15" departLane="best" departSpeed="max" from="320755659#0" to="475316645#2"/>
    <trip id="bus343" type="bus_bus" depart="923.84" departLane="best" from="216065937#0" to="-255416224#0"/>
    <trip id="bus345" type="bus_bus" depart="929.23" departLane="best" from="1036341350#6" to="479797282#2"/>
    <trip id="bus346" type="bus_bus" depart="931.92" departLane="best" departSpeed="max" from="100639942#0" to="742727481"/>
    <trip id="bus350" type="bus_bus" depart="942.70" departLane="best" from="1042693362#1" to="224737850#1"/>
    <trip id="bus351" type="bus_bus" depart="945.39" departLane="best" from="901285517" to="479621747"/>
    <trip id="bus353" type="bus_bus" depart="950.78" departLane="best" from="-479797310#10" to="1039158530"/>
    <trip id="bus356" type="bus_bus" depart="958.86" departLane="best" departSpeed="max" from="255416245#0" to="742717350"/>
    <trip id="bus357" type="bus_bus" depart="961.55" departLane="best" from="156148432#1" to="479797296"/>
    <!--<trip id="bus358" type="bus_bus" depart="964.24" departLane="best" from="-25934381#5" to="854000999#1"/>-->
    <trip id="bus359" type="bus_bus" depart="966.94" departLane="best" departSpeed="max" from="323563856" to="-490216931#3"/>
    <trip id="bus361" type="bus_bus" depart="972.32" departLane="best" departSpeed="max" from="256157265#0" to="-255416229#0"/>
    <trip id="bus363" type="bus_bus" depart="977.71" departLane="best" from="159457890#0" to="-320758116#3"/>
    <trip id="bus366" type="bus_bus" depart="985.79" departLane="best" from="-658620773#0" to="61163715#2"/>
    <trip id="bus367" type="bus_bus" depart="988.49" departLane="best" from="854052896#0" to="-491638583#0"/>
    <trip id="bus368" type="bus_bus" depart="991.18" departLane="best" from="255416251#2" to="1040942049"/>
    <trip id="bus370" type="bus_bus" depart="996.57" departLane="best" from="625313299" to="622880033"/>