<?xml version="1.0" encoding="UTF-8"?>

<!-- generated on 2022-05-18 13:11:52 by Eclipse SUMO duarouter Version 1.13.0
<configuration xmlns:xsi="http://www.w3.org/2001/XMLSchema-instance" xsi:noNamespaceSchemaLocation="http://sumo.dlr.de/xsd/duarouterConfiguration.xsd">

    <input>
        <net-file value="C:\Users\abdel\Sumo\2022-05-18-13-10-58\ec.net.xml"/>
        <route-files value="C:\Users\abdel\Sumo\2022-05-18-13-10-58\ec.bicycle.trips.xml"/>
    </input>

    <output>
        <output-file value="C:\Users\abdel\Sumo\2022-05-18-13-10-58\ec.bicycle.trips.xml.tmp"/>
        <write-trips value="true"/>
    </output>

    <time>
        <begin value="0"/>
        <end value="3600"/>
    </time>

    <report>
        <no-warnings value="true"/>
        <ignore-errors value="true"/>
        <no-step-log value="true"/>
    </report>

</configuration>
-->

<routes xmlns:xsi="http://www.w3.org/2001/XMLSchema-instance" xsi:noNamespaceSchemaLocation="http://sumo.dlr.de/xsd/routes_file.xsd">
    <vType id="bike_bicycle" vClass="bicycle"/>
    <trip id="bike0" type="bike_bicycle" depart="0.00" departLane="best" from="320758119" to="-1032959315#0"/>
    <trip id="bike2" type="bike_bicycle" depart="2.59" departLane="best" from="479797311#1" to="379986764#1"/>
    <trip id="bike3" type="bike_bicycle" depart="3.88" departLane="best" from="665453553" to="-159455892#5"/>
    <trip id="bike4" type="bike_bicycle" depart="5.17" departLane="best" from="1036076522#1" to="-1032963594#1"/>
    <trip id="bike5" type="bike_bicycle" depart="6.46" departLane="best" from="-479621745#0" to="145126348#0"/>
    <trip id="bike6" type="bike_bicycle" depart="7.76" departLane="best" from="-1032959314#1" to="-479621774#0"/>
    <trip id="bike7" type="bike_bicycle" depart="9.05" departLane="best" departSpeed="max" from="321073240" to="159457862"/>
    <trip id="bike8" type="bike_bicycle" depart="10.34" departLane="best" departSpeed="max" from="-479621746" to="234517427#0"/>
    <trip id="bike10" type="bike_bicycle" depart="12.93" departLane="best" from="491638583#8" to="479621749#0"/>
    <trip id="bike11" type="bike_bicycle" depart="14.22" departLane="best" from="-773159620#3" to="-321073270#0"/>
    <trip id="bike12" type="bike_bicycle" depart="15.51" departLane="best" from="775380335#1" to="100646198#0"/>
    <trip id="bike13" type="bike_bicycle" depart="16.81" departLane="best" from="-1046685137#0" to="-166533033#3"/>
    <trip id="bike14" type="bike_bicycle" depart="18.10" departLane="best" from="623891509" to="248698670#2"/>
    <trip id="bike15" type="bike_bicycle" depart="19.39" departLane="best" from="491638588#4" to="479797311#1"/>
    <trip id="bike16" type="bike_bicycle" depart="20.69" departLane="best" from="159453447#8" to="854038215#1"/>
    <trip id="bike17" type="bike_bicycle" depart="21.98" departLane="best" from="100646269#0" to="159457891#1"/>
    <trip id="bike18" type="bike_bicycle" depart="23.27" departLane="best" from="618371798" to="25931899#0"/>
    <trip id="bike19" type="bike_bicycle" depart="24.56" departLane="best" from="625413768#3" to="216063376#2"/>
    <trip id="bike20" type="bike_bicycle" depart="25.86" departLane="best" from="479621749#4" to="-1038312615"/>
    <trip id="bike21" type="bike_bicycle" depart="27.15" departLane="best" from="-479757221#0" to="-684122880#2"/>
    <trip id="bike22" type="bike_bicycle" depart="28.44" departLane="best" from="-1046557625#0" to="-480282283#0"/>
    <trip id="bike23" type="bike_bicycle" depart="29.73" departLane="best" from="-156148422#0" to="-658132351#1"/>
    <trip id="bike24" type="bike_bicycle" depart="31.03" departLane="best" departSpeed="max" from="267535712" to="1032950226#0"/>
    <trip id="bike25" type="bike_bicycle" depart="32.32" departLane="best" from="1005819187#1" to="-479797310#10"/>
    <trip id="bike28" type="bike_bicycle" depart="36.20" departLane="best" from="-25934385#1" to="479797310#8"/>
    <trip id="bike30" type="bike_bicycle" depart="38.78" departLane="best" from="900140271#3" to="321073236#1"/>
    <trip id="bike32" type="bike_bicycle" depart="41.37" departLane="best" from="623134302" to="481854583#3"/>
    <trip id="bike33" type="bike_bicycle" depart="42.66" departLane="best" from="-479797237#0" to="-1032965604#0"/>
    <trip id="bike34" type="bike_bicycle" depart="43.96" departLane="best" from="-658620773#0" to="-625351503"/>
    <trip id="bike36" type="bike_bicycle" depart="46.54" departLane="best" from="658132352#0" to="-775380332#6"/>
    <trip id="bike37" type="bike_bicycle" depart="47.83" departLane="best" from="321073257#0" to="1036099953"/>
    <trip id="bike40" type="bike_bicycle" depart="51.71" departLane="best" from="159457890#1" to="-61163785#6"/>
    <trip id="bike41" type="bike_bicycle" depart="53.01" departLane="best" from="216060954#0" to="684128579#1"/>
    <trip id="bike42" type="bike_bicycle" depart="54.30" departLane="best" from="1032950228#0" to="-480250293#0"/>
    <trip id="bike43" type="bike_bicycle" depart="55.59" departLane="best" from="994962124#1" to="156148397#4"/>
    <trip id="bike44" type="bike_bicycle" depart="56.88" departLane="best" from="-1046664526" to="-1038312618#11"/>
    <trip id="bike45" type="bike_bicycle" depart="58.18" departLane="best" from="-159455891#1" to="320755658#2"/>
    <trip id="bike46" type="bike_bicycle" depart="59.47" departLane="best" departSpeed="max" from="489924065" to="1038312618#7"/>
    <trip id="bike47" type="bike_bicycle" depart="60.76" departLane="best" from="-1039386578#1" to="1032972475"/>
    <trip id="bike48" type="bike_bicycle" depart="62.06" departLane="best" from="994962121#0" to="159453453"/>
    <trip id="bike49" type="bike_bicycle" depart="63.35" departLane="best" from="854001001#0" to="625413785#2"/>
    <trip id="bike51" type="bike_bicycle" depart="65.93" departLane="best" from="379986757#3" to="159455875#0"/>
    <trip id="bike53" type="bike_bicycle" depart="68.52" departLane="best" departSpeed="max" from="-159455896#1" to="1039217193"/>
    <trip id="bike54" type="bike_bicycle" depart="69.81" departLane="best" from="1038869523" to="775380334#3"/>
    <trip id="bike55" type="bike_bicycle" depart="71.11" departLane="best" from="658132351#0" to="-622804129#1"/>
    <trip id="bike56" type="bike_bicycle" depart="72.40" departLane="best" from="1043257628#1" to="-47070283#4"/>
    <trip id="bike57" type="bike_bicycle" depart="73.69" departLane="best" from="742718526#1" to="658131248"/>
    <trip id="bike58" type="bike_bicycle" depart="74.98" departLane="best" from="-625382077" to="321073234"/>
    <trip id="bike59" type="bike_bicycle" depart="76.28" departLane="best" from="248698668#2" to="-321073252#0"/>
    <trip id="bike61" type="bike_bicycle" depart="78.86" departLane="best" from="480288300#3" to="159453460"/>
    <trip id="bike62" type="bike_bicycle" depart="80.16" departLane="best" from="-1005819186#1" to="-875592468#2"/>
    <trip id="bike63" type="bike_bicycle" depart="81.45" departLane="best" from="-1032950222#3" to="765467136"/>
    <trip id="bike64" type="bike_bicycle" depart="82.74" departLane="best" from="658333929#1" to="622873934#0"/>
    <trip id="bike65" type="bike_bicycle" depart="84.03" departLane="best" from="-658132345#0" to="-1040377624#2"/>
    <trip id="bike68" type="bike_bicycle" depart="87.91" departLane="best" from="-1041447855#2" to="480276570#2"/>
    <trip id="bike69" type="bike_bicycle" depart="89.20" departLane="best" from="480276570#0" to="-248698668#9"/>
    <trip id="bike71" type="bike_bicycle" depart="91.79" departLane="best" from="-480284576#5" to="658132351#1"/>
    <trip id="bike72" type="bike_bicycle" depart="93.08" departLane="best" from="1036079532" to="-479797311#7"/>
    <trip id="bike73" type="bike_bicycle" depart="94.38" departLane="best" from="159453450#2" to="479797311#2"/>
    <trip id="bike74" type="bike_bicycle" depart="95.67" departLane="best" from="-379986759" to="-775252894#1"/>
    <trip id="bike75" type="bike_bicycle" depart="96.96" departLane="best" from="994875413#2" to="321073265"/>
    <trip id="bike76" type="bike_bicycle" depart="98.25" departLane="best" from="1036360485" to="156148419#0"/>
    <trip id="bike78" type="bike_bicycle" depart="100.84" departLane="best" from="-772397557#1" to="224737854#0"/>
    <trip id="bike79" type="bike_bicycle" depart="102.13" departLane="best" from="-479797239#3" to="-480250296#0"/>
    <trip id="bike80" type="bike_bicycle" depart="103.43" departLane="best" departSpeed="max" from="-1042254212#1" to="320758122#1"/>
    <trip id="bike82" type="bike_bicycle" depart="106.01" departLane="best" from="625413759#6" to="-1046628047#0"/>
    <trip id="bike83" type="bike_bicycle" depart="107.30" departLane="best" from="-479797310#3" to="379986737#6"/>
    <trip id="bike85" type="bike_bicycle" depart="109.89" departLane="best" from="772391454#0" to="216047552#3"/>
    <trip id="bike86" type="bike_bicycle" depart="111.18" departLane="best" from="1040882902#0" to="489606086"/>
    <trip id="bike87" type="bike_bicycle" depart="112.48" departLane="best" from="491638590#0" to="-479613108#6"/>
    <trip id="bike88" type="bike_bicycle" depart="113.77" departLane="best" from="-145126346#1" to="1039158532"/>
    <trip id="bike89" type="bike_bicycle" depart="115.06" departLane="best" from="1036079533#1" to="1042449166"/>
    <trip id="bike90" type="bike_bicycle" depart="116.35" departLane="best" from="479797283#0" to="379986755#0"/>
    <trip id="bike91" type="bike_bicycle" depart="117.65" departLane="best" from="875592468#2" to="-178774189#17"/>
    <trip id="bike92" type="bike_bicycle" depart="118.94" departLane="best" from="1032950230" to="100646245#1"/>
    <trip id="bike93" type="bike_bicycle" depart="120.23" departLane="best" from="625413768#3" to="-490165001#0"/>
    <trip id="bike94" type="bike_bicycle" depart="121.53" departLane="best" from="-379986704#0" to="1040925851"/>
    <trip id="bike95" type="bike_bicycle" depart="122.82" departLane="best" from="1036076522#1" to="-658140792#1"/>
    <trip id="bike96" type="bike_bicycle" depart="124.11" departLane="best" from="-480250298#1" to="753802197#3"/>
    <trip id="bike97" type="bike_bicycle" depart="125.40" departLane="best" from="1038266651" to="625413785#5"/>
    <trip id="bike98" type="bike_bicycle" depart="126.70" departLane="best" from="159455879#2" to="-1038870686"/>
    <trip id="bike99" type="bike_bicycle" depart="127.99" departLane="best" from="996026061#0" to="623128860#1"/>
    <trip id="bike100" type="bike_bicycle" depart="129.28" departLane="best" from="854000995#1" to="761121980#0"/>
    <trip id="bike101" type="bike_bicycle" depart="130.58" departLane="best" from="623891515#0" to="-379986720#2"/>
    <trip id="bike102" type="bike_bicycle" depart="131.87" departLane="best" from="1041521600" to="-479797342#1"/>
    <trip id="bike103" type="bike_bicycle" depart="133.16" departLane="best" from="1032950228#4" to="-1040591002#1"/>
    <trip id="bike104" type="bike_bicycle" depart="134.45" departLane="best" from="100646270" to="885883449#3"/>
    <trip id="bike105" type="bike_bicycle" depart="135.75" departLane="best" from="-480284576#5" to="486831710#0"/>
    <trip id="bike106" type="bike_bicycle" depart="137.04" departLane="best" from="1039133058" to="1038324578"/>
    <trip id="bike108" type="bike_bicycle" depart="139.62" departLane="best" from="159457869" to="479797268"/>
    <trip id="bike109" type="bike_bicycle" depart="140.92" departLane="best" from="-248698668#2" to="-753799331#0"/>
    <trip id="bike110" type="bike_bicycle" depart="142.21" departLane="best" from="854000993" to="216064942#0"/>
    <trip id="bike111" type="bike_bicycle" depart="143.50" departLane="best" from="159453465" to="480250290"/>
    <trip id="bike113" type="bike_bicycle" depart="146.09" departLane="best" from="1046352108#0" to="625397288#2"/>
    <trip id="bike114" type="bike_bicycle" depart="147.38" departLane="best" from="-255187763#4" to="814050150#7"/>
    <trip id="bike116" type="bike_bicycle" depart="149.97" departLane="best" from="224737852#3" to="379986760"/>
    <trip id="bike117" type="bike_bicycle" depart="151.26" departLane="best" from="-479797300#1" to="-235427542#1"/>
    <trip id="bike118" type="bike_bicycle" depart="152.55" departLane="best" from="665451331#2" to="-486831710#0"/>
    <trip id="bike119" type="bike_bicycle" depart="153.85" departLane="best" from="224737852#1" to="25931914"/>
    <trip id="bike121" type="bike_bicycle" depart="156.43" departLane="best" from="156148401#2" to="772396531#6"/>
    <trip id="bike122" type="bike_bicycle" depart="157.72" departLane="best" from="-379986771#0" to="479797258#2"/>
    <trip id="bike123" type="bike_bicycle" depart="159.02" departLane="best" from="-479797310#8" to="1036099953"/>
    <trip id="bike124" type="bike_bicycle" depart="160.31" departLane="best" from="379986709#1" to="-753802197#6"/>
    <trip id="bike125" type="bike_bicycle" depart="161.60" departLane="best" from="-661149580#1" to="480250301#1"/>
    <trip id="bike126" type="bike_bicycle" depart="162.90" departLane="best" from="-1043257629#0" to="1041465733#1"/>
    <trip id="bike127" type="bike_bicycle" depart="164.19" departLane="best" from="994962124#6" to="994962117"/>
    <trip id="bike128" type="bike_bicycle" depart="165.48" departLane="best" from="-1043801511#2" to="-479797318#3"/>
    <trip id="bike129" type="bike_bicycle" depart="166.77" departLane="best" from="-480284576#5" to="772396530"/>
    <trip id="bike130" type="bike_bicycle" depart="168.07" departLane="best" from="658369594" to="658369595#5"/>
    <trip id="bike131" type="bike_bicycle" depart="169.36" departLane="best" from="1005819186#1" to="-379986688#0"/>
    <trip id="bike132" type="bike_bicycle" depart="170.65" departLane="best" from="622809059#1" to="479621763#4"/>
    <trip id="bike133" type="bike_bicycle" depart="171.95" departLane="best" from="248698673#3" to="900140267"/>
    <trip id="bike134" type="bike_bicycle" depart="173.24" departLane="best" from="321073252#2" to="-100646260#2"/>
    <trip id="bike135" type="bike_bicycle" depart="174.53" departLane="best" from="583797089#1" to="-753802197#3"/>
    <trip id="bike136" type="bike_bicycle" depart="175.82" departLane="best" departSpeed="max" from="323563821#0" to="773159620#1"/>
    <trip id="bike137" type="bike_bicycle" depart="177.12" departLane="best" from="-216047555#1" to="-216065936"/>
    <trip id="bike138" type="bike_bicycle" depart="178.41" departLane="best" departSpeed="max" from="-159455871#7" to="166533033#2"/>
    <trip id="bike139" type="bike_bicycle" depart="179.70" departLane="best" from="-483726628#3" to="248698673#4"/>
    <trip id="bike140" type="bike_bicycle" depart="181.00" departLane="best" from="479772303#0" to="-479797258#4"/>
    <trip id="bike143" type="bike_bicycle" depart="184.87" departLane="best" from="623891502#0" to="-159457875#2"/>
    <trip id="bike144" type="bike_bicycle" depart="186.17" departLane="best" from="1036079533#1" to="-658132346"/>
    <trip id="bike145" type="bike_bicycle" depart="187.46" departLane="best" from="-100646220#3" to="480288299"/>
    <trip id="bike146" type="bike_bicycle" depart="188.75" departLane="best" departSpeed="max" from="320755659#0" to="-61163785#2"/>
    <trip id="bike147" type="bike_bicycle" depart="190.05" departLane="best" departSpeed="max" from="479797324#0" to="159457891#0"/>
    <trip id="bike149" type="bike_bicycle" depart="192.63" departLane="best" from="-1046352108#3" to="665451327#0"/>
    <trip id="bike150" type="bike_bicycle" depart="193.92" departLane="best" from="684135625#1" to="159457870#1"/>
    <trip id="bike151" type="bike_bicycle" depart="195.22" departLane="best" from="622873929#1" to="216065938#4"/>
    <trip id="bike152" type="bike_bicycle" depart="196.51" departLane="best" from="-235427740#1" to="-248698668#3"/>
    <trip id="bike153" type="bike_bicycle" depart="197.80" departLane="best" from="-658132348#0" to="684135622#3"/>
    <trip id="bike154" type="bike_bicycle" depart="199.09" departLane="best" from="490216937#0" to="625413785#2"/>
    <trip id="bike155" type="bike_bicycle" depart="200.39" departLane="best" from="684122880#1" to="-479797310#4"/>
    <trip id="bike156" type="bike_bicycle" depart="201.68" departLane="best" departSpeed="max" from="-480250296#3" to="-178774200"/>
    <trip id="bike158" type="bike_bicycle" depart="204.27" departLane="best" from="1032961511#5" to="25934337#3"/>
    <trip id="bike159" type="bike_bicycle" depart="205.56" departLane="best" from="-248698668#11" to="765467138#1"/>
    <trip id="bike160" type="bike_bicycle" depart="206.85" departLane="best" from="625413785#3" to="854052897#1"/>
    <trip id="bike161" type="bike_bicycle" depart="208.14" departLane="best" from="538085872" to="659807190#2"/>
    <trip id="bike162" type="bike_bicycle" depart="209.44" departLane="best" departSpeed="max" from="-1032955264" to="479797327#7"/>
    <trip id="bike164" type="bike_bicycle" depart="212.02" departLane="best" from="491631422#8" to="625418550#1"/>
    <trip id="bike165" type="bike_bicycle" depart="213.32" departLane="best" from="538085872" to="-623891502#1"/>
    <trip id="bike166" type="bike_bicycle" depart="214.61" departLane="best" from="483796488#1" to="-216047555#0"/>
    <trip id="bike167" type="bike_bicycle" depart="215.90" departLane="best" from="658068462#2" to="625413780"/>
    <trip id="bike168" type="bike_bicycle" depart="217.19" departLane="best" from="-479621750#0" to="61163710#15"/>
    <trip id="bike171" type="bike_bicycle" depart="221.07" departLane="best" from="-1032950228#5" to="-479621749#4"/>
    <trip id="bike172" type="bike_bicycle" depart="222.37" departLane="best" from="-753799331#0" to="625418551#1"/>
    <trip id="bike174" type="bike_bicycle" depart="224.95" departLane="best" from="320758127#2" to="1036341350#1"/>
    <trip id="bike176" type="bike_bicycle" depart="227.54" departLane="best" from="772396533#2" to="-216065933"/>
    <trip id="bike177" type="bike_bicycle" depart="228.83" departLane="best" from="854000999#1" to="-47070283#4"/>
    <trip id="bike178" type="bike_bicycle" depart="230.12" departLane="best" from="814050150#3" to="-623128866#0"/>
    <trip id="bike180" type="bike_bicycle" depart="232.71" departLane="best" from="479797282#2" to="-775380332#1"/>
    <trip id="bike181" type="bike_bicycle" depart="234.00" departLane="best" from="248698663#3" to="156148401#4"/>
    <trip id="bike182" type="bike_bicycle" depart="235.29" departLane="best" from="1032698564#1" to="216060954#2"/>
    <trip id="bike183" type="bike_bicycle" depart="236.59" departLane="best" from="-480252151#2" to="479751374#1"/>
    <trip id="bike184" type="bike_bicycle" depart="237.88" departLane="best" from="-100646196#1" to="755285219"/>
    <trip id="bike185" type="bike_bicycle" depart="239.17" departLane="best" from="159453449#7" to="479797276"/>
    <trip id="bike186" type="bike_bicycle" depart="240.47" departLane="best" from="479797324#3" to="379986746#1"/>
    <trip id="bike188" type="bike_bicycle" depart="243.05" departLane="best" from="379986683#0" to="-901285513"/>
    <trip id="bike189" type="bike_bicycle" depart="244.34" departLane="best" from="-658369595#3" to="625382075"/>
    <trip id="bike190" type="bike_bicycle" depart="245.64" departLane="best" from="479797239#2" to="-753802197#7"/>
    <trip id="bike191" type="bike_bicycle" depart="246.93" departLane="best" from="-658132352#0" to="1036353125"/>
    <trip id="bike192" type="bike_bicycle" depart="248.22" departLane="best" from="1032950229" to="-742727485"/>
    <trip id="bike193" type="bike_bicycle" depart="249.52" departLane="best" departSpeed="max" from="-178774202#2" to="1038312618#1"/>
    <trip id="bike194" type="bike_bicycle" depart="250.81" departLane="best" from="772397557#2" to="379986767#0"/>
    <trip id="bike195" type="bike_bicycle" depart="252.10" departLane="best" from="684135622#6" to="256157278#1"/>
    <trip id="bike196" type="bike_bicycle" depart="253.39" departLane="best" from="-625418519" to="159457875#1"/>
    <trip id="bike197" type="bike_bicycle" depart="254.69" departLane="best" from="-1005819186#0" to="-684122877#2"/>
    <trip id="bike198" type="bike_bicycle" depart="255.98" departLane="best" from="1036341351#1" to="216065930#0"/>
    <trip id="bike199" type="bike_bicycle" depart="257.27" departLane="best" from="321073255#0" to="1042334799"/>
    <trip id="bike200" type="bike_bicycle" depart="258.56" departLane="best" from="1038266647" to="-479797342#1"/>
    <trip id="bike201" type="bike_bicycle" depart="259.86" departLane="best" from="1040882903" to="684135625#2"/>
    <trip id="bike202" type="bike_bicycle" depart="261.15" departLane="best" from="490216934#1" to="-379986740#2"/>
    <trip id="bike203" type="bike_bicycle" depart="262.44" departLane="best" departSpeed="max" from="-1046614093" to="156148413#0"/>
    <trip id="bike204" type="bike_bicycle" depart="263.74" departLane="best" from="25934395#0" to="1005819187#2"/>
    <trip id="bike205" type="bike_bicycle" depart="265.03" departLane="best" from="583797089#8" to="480250299#1"/>
    <trip id="bike207" type="bike_bicycle" depart="267.61" departLane="best" from="-379986749#1" to="-1032959314#1"/>
    <trip id="bike208" type="bike_bicycle" depart="268.91" departLane="best" from="-479816717#1" to="1043257628#1"/>
    <trip id="bike209" type="bike_bicycle" depart="270.20" departLane="best" from="625351505" to="-1046628055#2"/>
    <trip id="bike211" type="bike_bicycle" depart="272.79" departLane="best" from="-379986723#2" to="479621745#5"/>
    <trip id="bike212" type="bike_bicycle" depart="274.08" departLane="best" from="1042676037" to="-483796485#0"/>
    <trip id="bike213" type="bike_bicycle" depart="275.37" departLane="best" from="321073259#0" to="-100646248#1"/>
    <trip id="bike215" type="bike_bicycle" depart="277.96" departLane="best" from="-159455871#4" to="1038393246#1"/>
    <trip id="bike216" type="bike_bicycle" depart="279.25" departLane="best" from="-320758140#0" to="814050143"/>
    <trip id="bike217" type="bike_bicycle" depart="280.54" departLane="best" from="145126347" to="-1038801182#1"/>
    <trip id="bike218" type="bike_bicycle" depart="281.84" departLane="best" from="-480250296#2" to="625382078"/>
    <trip id="bike220" type="bike_bicycle" depart="284.42" departLane="best" from="379986695#0" to="900140269"/>
    <trip id="bike221" type="bike_bicycle" depart="285.71" departLane="best" from="224737852#5" to="775348226#2"/>
    <trip id="bike223" type="bike_bicycle" depart="288.30" departLane="best" from="479797239#0" to="145126346#1"/>
    <trip id="bike224" type="bike_bicycle" depart="289.59" departLane="best" from="621270415" to="159457875#1"/>
    <trip id="bike225" type="bike_bicycle" depart="290.89" departLane="best" from="684122879#2" to="479816584#0"/>
    <trip id="bike226" type="bike_bicycle" depart="292.18" departLane="best" from="1040925855#2" to="-61163715#0"/>
    <trip id="bike227" type="bike_bicycle" depart="293.47" departLane="best" departSpeed="max" from="-480250292" to="321073225#6"/>
    <trip id="bike228" type="bike_bicycle" depart="294.76" departLane="best" from="480276570#0" to="156148428#2"/>
    <trip id="bike229" type="bike_bicycle" depart="296.06" departLane="best" departSpeed="max" from="25931033" to="-658095569#1"/>
    <trip id="bike231" type="bike_bicycle" depart="298.64" departLane="best" from="-483726628#0" to="-817310825#0"/>
    <trip id="bike233" type="bike_bicycle" depart="301.23" departLane="best" from="-479797258#1" to="479613108#3"/>
    <trip id="bike234" type="bike_bicycle" depart="302.52" departLane="best" departSpeed="max" from="479621755#0" to="-1043801511#1"/>
    <trip id="bike235" type="bike_bicycle" depart="303.81" departLane="best" from="1032961515#1" to="159455892#6"/>
    <trip id="bike237" type="bike_bicycle" depart="306.40" departLane="best" from="1036062886#1" to="684402144#1"/>
    <trip id="bike238" type="bike_bicycle" depart="307.69" departLane="best" from="216056776#0" to="479621745#1"/>
    <trip id="bike239" type="bike_bicycle" depart="308.98" departLane="best" departSpeed="max" from="625397295" to="480284576#0"/>
    <trip id="bike242" type="bike_bicycle" depart="312.86" departLane="best" from="625382084" to="775380334#1"/>
    <trip id="bike243" type="bike_bicycle" depart="314.16" departLane="best" from="1036058415" to="480250287#5"/>
    <trip id="bike244" type="bike_bicycle" depart="315.45" departLane="best" from="159455873" to="248698670#1"/>
    <trip id="bike245" type="bike_bicycle" depart="316.74" departLane="best" departSpeed="max" from="-479621746" to="-480250293#1"/>
    <trip id="bike246" type="bike_bicycle" depart="318.03" departLane="best" departSpeed="max" from="1036346145" to="-1032961518#2"/>
    <trip id="bike247" type="bike_bicycle" depart="319.33" departLane="best" from="-772396531#0" to="379986771#1"/>
    <trip id="bike248" type="bike_bicycle" depart="320.62" departLane="best" from="1032959315#0" to="-379986715#0"/>
    <trip id="bike249" type="bike_bicycle" depart="321.91" departLane="best" from="1040377624#2" to="-248698668#4"/>
    <trip id="bike251" type="bike_bicycle" depart="324.50" departLane="best" from="1032950214" to="178774210#1"/>
    <trip id="bike252" type="bike_bicycle" depart="325.79" departLane="best" from="-1032959315#0" to="321073246#1"/>
    <trip id="bike253" type="bike_bicycle" depart="327.08" departLane="best" departSpeed="max" from="-216047565#1" to="1041542912"/>
    <trip id="bike254" type="bike_bicycle" depart="328.38" departLane="best" from="-1038312613#0" to="1032963595#1"/>
    <trip id="bike256" type="bike_bicycle" depart="330.96" departLane="best" from="480252150#2" to="1032963595#1"/>
    <trip id="bike257" type="bike_bicycle" depart="332.26" departLane="best" from="479816722#1" to="622873934#2"/>
    <trip id="bike258" type="bike_bicycle" depart="333.55" departLane="best" from="-480252145#1" to="-159453462"/>
    <trip id="bike259" type="bike_bicycle" depart="334.84" departLane="best" from="-1032950222#2" to="159455883"/>
    <trip id="bike260" type="bike_bicycle" depart="336.13" departLane="best" from="996026062#1" to="1032698566"/>
    <trip id="bike261" type="bike_bicycle" depart="337.43" departLane="best" from="321073241#1" to="483796486"/>
    <trip id="bike263" type="bike_bicycle" depart="340.01" departLane="best" from="775122578#6" to="-479751865#0"/>
    <trip id="bike264" type="bike_bicycle" depart="341.31" departLane="best" from="-1032950225#1" to="-321073240"/>
    <trip id="bike265" type="bike_bicycle" depart="342.60" departLane="best" from="-178774197#1" to="379986740#1"/>
    <trip id="bike266" type="bike_bicycle" depart="343.89" departLane="best" from="166533033#3" to="-479816723#0"/>
    <trip id="bike267" type="bike_bicycle" depart="345.18" departLane="best" from="479613105#0" to="480284577"/>
    <trip id="bike269" type="bike_bicycle" depart="347.77" departLane="best" from="479804869#1" to="-216065930#0"/>
    <trip id="bike270" type="bike_bicycle" depart="349.06" departLane="best" from="584750385#1" to="853497624#4"/>
    <trip id="bike271" type="bike_bicycle" depart="350.36" departLane="best" departSpeed="max" from="-159455883" to="-1032959317#2"/>
    <trip id="bike273" type="bike_bicycle" depart="352.94" departLane="best" from="775380346" to="1036099956#2"/>
    <trip id="bike274" type="bike_bicycle" depart="354.23" departLane="best" from="479751369#7" to="-145126358#3"/>
    <trip id="bike276" type="bike_bicycle" depart="356.82" departLane="best" from="-156148430#0" to="480288302"/>
    <trip id="bike277" type="bike_bicycle" depart="358.11" departLane="best" from="625351507" to="248698666"/>
    <trip id="bike278" type="bike_bicycle" depart="359.41" departLane="best" from="-178774189#0" to="875592499#1"/>
    <trip id="bike280" type="bike_bicycle" depart="361.99" departLane="best" from="1036341350#0" to="1032959314#0"/>
    <trip id="bike283" type="bike_bicycle" depart="365.87" departLane="best" from="-159453466#1" to="814050150#7"/>
    <trip id="bike284" type="bike_bicycle" depart="367.16" departLane="best" departSpeed="max" from="267535712" to="622805764#1"/>
    <trip id="bike285" type="bike_bicycle" depart="368.45" departLane="best" from="479621757#0" to="1039217196#0"/>
    <trip id="bike286" type="bike_bicycle" depart="369.75" departLane="best" from="479797305#3" to="853506097#1"/>
    <trip id="bike287" type="bike_bicycle" depart="371.04" departLane="best" departSpeed="max" from="-480288303#1" to="573960423"/>
    <trip id="bike290" type="bike_bicycle" depart="374.92" departLane="best" from="-480288293#3" to="625397283#2"/>
    <trip id="bike292" type="bike_bicycle" depart="377.50" departLane="best" from="658369595#3" to="-483726628#3"/>
    <trip id="bike294" type="bike_bicycle" depart="380.09" departLane="best" from="100646270" to="-1032961518#0"/>
    <trip id="bike297" type="bike_bicycle" depart="383.97" departLane="best" from="-773159620#4" to="658620773#0"/>
    <trip id="bike298" type="bike_bicycle" depart="385.26" departLane="best" from="479613108#6" to="-658132345#0"/>
    <trip id="bike300" type="bike_bicycle" depart="387.85" departLane="best" departSpeed="max" from="-1046622547" to="479797277#2"/>
    <trip id="bike301" type="bike_bicycle" depart="389.14" departLane="best" from="1041542915#1" to="480267438#2"/>
    <trip id="bike303" type="bike_bicycle" depart="391.73" departLane="best" from="1042335360#1" to="491630623#2"/>
    <trip id="bike304" type="bike_bicycle" depart="393.02" departLane="best" departSpeed="max" from="-1046685137#1" to="-480250298#2"/>
    <trip id="bike306" type="bike_bicycle" depart="395.60" departLane="best" departSpeed="max" from="216047557" to="1042716324"/>
    <trip id="bike307" type="bike_bicycle" depart="396.90" departLane="best" from="156148426#0" to="1038393246#2"/>
    <trip id="bike308" type="bike_bicycle" depart="398.19" departLane="best" from="479797345#1" to="-994872979"/>