<?xml version="1.0" encoding="UTF-8"?>

<!-- generated on 2022-06-12 14:35:20 by Eclipse SUMO netedit Version 1.13.0
<configuration xmlns:xsi="http://www.w3.org/2001/XMLSchema-instance" xsi:noNamespaceSchemaLocation="http://sumo.dlr.de/xsd/netconvertConfiguration.xsd">

    <input>
        <sumo-net-file value="C:\Users\hamza\Desktop\ec\ec.net.xml"/>
    </input>

    <output>
        <output-file value="C:\Users\hamza\Desktop\ec\ec.net.xml"/>
        <plain-output-prefix value="C:\Users\hamza\Desktop\ec\ec"/>
        <output.street-names value="true"/>
    </output>

    <processing>
        <geometry.min-radius.fix.railways value="false"/>
        <geometry.max-grade.fix value="false"/>
        <offset.disable-normalization value="true"/>
        <lefthand value="false"/>
    </processing>

    <junctions>
        <no-internal-links value="false"/>
        <no-turnarounds value="true"/>
        <junctions.corner-detail value="5"/>
        <junctions.limit-turn-speed value="5.5"/>
        <rectangular-lane-cut value="false"/>
    </junctions>

    <pedestrian>
        <walkingareas value="true"/>
    </pedestrian>

    <report>
        <aggregate-warnings value="5"/>
    </report>

</configuration>
-->

<connections version="1.9" xmlns:xsi="http://www.w3.org/2001/XMLSchema-instance" xsi:noNamespaceSchemaLocation="http://sumo.dlr.de/xsd/connections_file.xsd">
    <connection from="-1005819185" to="1005819186#3" fromLane="0" toLane="0"/>
    <connection from="-1005819185" to="-1005819186#2" fromLane="0" toLane="0"/>
    <connection from="-1005819185" to="1005819185" fromLane="0" toLane="0"/>

    <connection from="-1005819186#0" to="1005819184#0" fromLane="0" toLane="0"/>
    <connection from="-1005819186#0" to="-1005819186#3" fromLane="0" toLane="0"/>
    <connection from="-1005819186#0" to="1005819186#0" fromLane="0" toLane="0"/>

    <connection from="-1005819186#1" to="-1005819186#0" fromLane="0" toLane="0"/>
    <connection from="-1005819186#1" to="-1005819185" fromLane="0" toLane="0"/>
    <connection from="-1005819186#1" to="1005819186#1" fromLane="0" toLane="0"/>

    <connection from="-1005819186#2" to="1005819188" fromLane="0" toLane="0"/>
    <connection from="-1005819186#2" to="-1005819186#1" fromLane="0" toLane="0"/>
    <connection from="-1005819186#2" to="1005819186#2" fromLane="0" toLane="0"/>

    <connection from="-1005819186#3" to="-1005819186#2" fromLane="0" toLane="0"/>
    <connection from="-1005819186#3" to="1005819185" fromLane="0" toLane="0"/>
    <connection from="-1005819186#3" to="1005819186#3" fromLane="0" toLane="0"/>

    <connection from="-1005819188" to="-1005819186#1" fromLane="0" toLane="0"/>
    <connection from="-1005819188" to="1005819186#2" fromLane="0" toLane="0"/>
    <connection from="-1005819188" to="1005819188" fromLane="0" toLane="0"/>

    <connection from="-1005819189#0" to="-762108000#9" fromLane="0" toLane="0"/>

    <connection from="-1005819189#1" to="-1005819189#0" fromLane="0" toLane="0"/>

    <connection from="-1005819189#2" to="-1005819189#1" fromLane="0" toLane="0"/>

    <connection from="-1005819189#3" to="-1005819189#2" fromLane="0" toLane="0"/>
    <connection from="-1005819189#3" to="762263967#0" fromLane="0" toLane="0"/>

    <connection from="-1005819190" to="-775384756#8" fromLane="0" toLane="0"/>
    <connection from="-1005819190" to="762107992" fromLane="0" toLane="0"/>

    <connection from="-1005819191" to="-762107995#2" fromLane="0" toLane="0"/>

    <connection from="-100639942#0" to="100639942#0" fromLane="0" toLane="0"/>

    <connection from="-100639942#1" to="-100639942#0" fromLane="0" toLane="0"/>
    <connection from="-100639942#1" to="1039133058" fromLane="0" toLane="0"/>
    <connection from="-100639942#1" to="100639942#1" fromLane="0" toLane="0"/>

    <connection from="-100646196#0" to="658100062#0" fromLane="0" toLane="0"/>
    <connection from="-100646196#0" to="-100646196#2" fromLane="0" toLane="0"/>
    <connection from="-100646196#0" to="100646196#3" fromLane="0" toLane="0"/>

    <connection from="-100646196#1" to="100646198#0" fromLane="0" toLane="0"/>
    <connection from="-100646196#1" to="-100646196#0" fromLane="0" toLane="0"/>
    <connection from="-100646196#1" to="100646196#1" fromLane="0" toLane="0"/>

    <connection from="-100646196#2" to="-100646196#1" fromLane="0" toLane="0"/>
    <connection from="-100646196#2" to="100646196#2" fromLane="0" toLane="0"/>

    <connection from="-100646198#0" to="-100646196#0" fromLane="0" toLane="0"/>

    <connection from="-100646217#0" to="-479797305#2" fromLane="0" toLane="0"/>

    <connection from="-100646217#1" to="-166533030" fromLane="0" toLane="0"/>
    <connection from="-100646217#1" to="-100646217#0" fromLane="0" toLane="0"/>

    <connection from="-100646217#3" to="684135624" fromLane="0" toLane="0"/>
    <connection from="-100646217#3" to="-E3" fromLane="0" toLane="0"/>

    <connection from="-100646220#0" to="E2" fromLane="0" toLane="0"/>
    <connection from="-100646220#0" to="-479797311#2" fromLane="0" toLane="0"/>

    <connection from="-100646220#1" to="-100646220#0" fromLane="0" toLane="0"/>

    <connection from="-100646220#2" to="622888969#0" fromLane="0" toLane="0"/>
    <connection from="-100646220#2" to="-100646220#1" fromLane="0" toLane="0"/>

    <connection from="-100646220#3" to="-100646220#2" fromLane="0" toLane="0"/>

    <connection from="-100646234" to="479613101#2" fromLane="0" toLane="0"/>
    <connection from="-100646234" to="-479613101#1" fromLane="0" toLane="0"/>
    <connection from="-100646234" to="100646234" fromLane="0" toLane="0"/>

    <connection from="-100646242#1" to="-100646252#1" fromLane="0" toLane="0"/>
    <connection from="-100646242#1" to="480276562" fromLane="0" toLane="0"/>
    <connection from="-100646242#1" to="-100646256#1" fromLane="0" toLane="0"/>
    <connection from="-100646242#1" to="100646242#1" fromLane="0" toLane="0"/>

    <connection from="-100646243" to="-479816717#0" fromLane="0" toLane="0"/>
    <connection from="-100646243" to="-100646242#1" fromLane="0" toLane="0"/>
    <connection from="-100646243" to="479816717#1" fromLane="0" toLane="0"/>
    <connection from="-100646243" to="100646243" fromLane="0" toLane="0"/>

    <connection from="-100646245#0" to="1040591002#1" fromLane="0" toLane="0"/>
    <connection from="-100646245#0" to="-480276563" fromLane="0" toLane="0"/>
    <connection from="-100646245#0" to="-1040591002#0" fromLane="0" toLane="0"/>

    <connection from="-100646245#1" to="-100646243" fromLane="0" toLane="0"/>
    <connection from="-100646245#1" to="-100646245#0" fromLane="0" toLane="0"/>
    <connection from="-100646245#1" to="100646245#1" fromLane="0" toLane="0"/>

    <connection from="-100646245#2" to="1040591003" fromLane="0" toLane="0"/>
    <connection from="-100646245#2" to="-100646245#1" fromLane="0" toLane="0"/>

    <connection from="-100646245#3" to="-100646245#2" fromLane="0" toLane="0"/>
    <connection from="-100646245#3" to="480276563" fromLane="0" toLane="0"/>
    <connection from="-100646245#3" to="100646245#3" fromLane="0" toLane="0"/>

    <connection from="-100646248#0" to="61163715#2" fromLane="0" toLane="0"/>
    <connection from="-100646248#0" to="-61163715#1" fromLane="0" toLane="0"/>
    <connection from="-100646248#0" to="100646248#0" fromLane="0" toLane="0"/>

    <connection from="-100646248#1" to="100646251" fromLane="0" toLane="0"/>
    <connection from="-100646248#1" to="-100646248#0" fromLane="0" toLane="0"/>
    <connection from="-100646248#1" to="100646248#1" fromLane="0" toLane="0"/>

    <connection from="-100646248#2" to="-480276564" fromLane="0" toLane="0"/>
    <connection from="-100646248#2" to="-100646248#1" fromLane="0" toLane="0"/>
    <connection from="-100646248#2" to="100646248#2" fromLane="0" toLane="0"/>

    <connection from="-100646252#0" to="-100646248#0" fromLane="0" toLane="0"/>
    <connection from="-100646252#0" to="100646248#1" fromLane="0" toLane="0"/>
    <connection from="-100646252#0" to="100646251" fromLane="0" toLane="0"/>

    <connection from="-100646252#1" to="-100646252#0" fromLane="0" toLane="0"/>
    <connection from="-100646252#1" to="-100646254" fromLane="0" toLane="0"/>
    <connection from="-100646252#1" to="100646252#1" fromLane="0" toLane="0"/>

    <connection from="-100646254" to="480276564" fromLane="0" toLane="0"/>
    <connection from="-100646254" to="100646260#0" fromLane="0" toLane="0"/>
    <connection from="-100646254" to="100646254" fromLane="0" toLane="0"/>

    <connection from="-100646256#0" to="61163785#4" fromLane="0" toLane="0"/>
    <connection from="-100646256#0" to="100646258#0" fromLane="0" toLane="0"/>
    <connection from="-100646256#0" to="-61163785#3" fromLane="0" toLane="0"/>
    <connection from="-100646256#0" to="100646256#0" fromLane="0" toLane="0"/>

    <connection from="-100646256#1" to="658417984" fromLane="0" toLane="0"/>
    <connection from="-100646256#1" to="-100646256#0" fromLane="0" toLane="0"/>
    <connection from="-100646256#1" to="100646256#1" fromLane="0" toLane="0"/>

    <connection from="-100646258#0" to="-61163785#3" fromLane="0" toLane="0"/>
    <connection from="-100646258#0" to="100646256#0" fromLane="0" toLane="0"/>
    <connection from="-100646258#0" to="61163785#4" fromLane="0" toLane="0"/>
    <connection from="-100646258#0" to="100646258#0" fromLane="0" toLane="0"/>

    <connection from="-100646258#1" to="-100646258#0" fromLane="0" toLane="0"/>
    <connection from="-100646258#1" to="-100646260#3" fromLane="0" toLane="0"/>
    <connection from="-100646258#1" to="100646258#1" fromLane="0" toLane="0"/>

    <connection from="-100646260#0" to="100646254" fromLane="0" toLane="0"/>
    <connection from="-100646260#0" to="480276564" fromLane="0" toLane="0"/>
    <connection from="-100646260#0" to="100646260#0" fromLane="0" toLane="0"/>

    <connection from="-100646260#1" to="-480276562" fromLane="0" toLane="0"/>
    <connection from="-100646260#1" to="-100646260#0" fromLane="0" toLane="0"/>
    <connection from="-100646260#1" to="100646260#1" fromLane="0" toLane="0"/>

    <connection from="-100646260#2" to="-658417984" fromLane="0" toLane="0"/>
    <connection from="-100646260#2" to="-100646260#1" fromLane="0" toLane="0"/>
    <connection from="-100646260#2" to="-100646264#1" fromLane="0" toLane="0"/>
    <connection from="-100646260#2" to="100646260#2" fromLane="0" toLane="0"/>

    <connection from="-100646260#3" to="-61163785#4" fromLane="0" toLane="0"/>
    <connection from="-100646260#3" to="-100646260#2" fromLane="0" toLane="0"/>
    <connection from="-100646260#3" to="61163785#5" fromLane="0" toLane="0"/>
    <connection from="-100646260#3" to="100646260#3" fromLane="0" toLane="0"/>

    <connection from="-100646264#0" to="100646264#0" fromLane="0" toLane="0"/>

    <connection from="-100646264#1" to="-100646248#2" fromLane="0" toLane="0"/>
    <connection from="-100646264#1" to="-100646264#0" fromLane="0" toLane="0"/>
    <connection from="-100646264#1" to="100646264#1" fromLane="0" toLane="0"/>

    <connection from="-100646269#0" to="-100646258#1" fromLane="0" toLane="0"/>
    <connection from="-100646269#0" to="480252898" fromLane="0" toLane="0"/>
    <connection from="-100646269#0" to="-145126355" fromLane="0" toLane="0"/>
    <connection from="-100646269#0" to="100646269#0" fromLane="0" toLane="0"/>

    <connection from="-100646269#1" to="100646270" fromLane="0" toLane="0"/>
    <connection from="-100646269#1" to="-100646269#0" fromLane="0" toLane="0"/>
    <connection from="-100646269#1" to="100646269#1" fromLane="0" toLane="0"/>

    <connection from="-100646270" to="-100646269#0" fromLane="0" toLane="0"/>
    <connection from="-100646270" to="100646269#1" fromLane="0" toLane="0"/>
    <connection from="-100646270" to="100646270" fromLane="0" toLane="0"/>

    <connection from="-1011007455#0" to="994875413#1" fromLane="0" toLane="0"/>
    <connection from="-1011007455#0" to="1011007455#0" fromLane="0" toLane="0"/>

    <connection from="-1011007455#1" to="-1011007455#2" fromLane="0" toLane="0"/>
    <connection from="-1011007455#1" to="-1011007455#0" fromLane="0" toLane="0"/>
    <connection from="-1011007455#1" to="1011007455#1" fromLane="0" toLane="0"/>

    <connection from="-1011007455#2" to="-1011007455#1" fromLane="0" toLane="0"/>

    <connection from="-1011179080#0" to="1011179085" fromLane="0" toLane="0"/>
    <connection from="-1011179080#0" to="1011179086#0" fromLane="0" toLane="0"/>
    <connection from="-1011179080#0" to="1011179081" fromLane="0" toLane="0"/>

    <connection from="-1011179080#1" to="-1011179080#0" fromLane="0" toLane="0"/>
    <connection from="-1011179080#1" to="-1011179082#1" fromLane="0" toLane="0"/>
    <connection from="-1011179080#1" to="1011179080#1" fromLane="0" toLane="0"/>

    <connection from="-1011179082#0" to="-1011179086#0" fromLane="0" toLane="0"/>
    <connection from="-1011179082#0" to="1011179086#1" fromLane="0" toLane="0"/>
    <connection from="-1011179082#0" to="1011179082#0" fromLane="0" toLane="0"/>

    <connection from="-1011179082#1" to="-1011179082#0" fromLane="0" toLane="0"/>
    <connection from="-1011179082#1" to="-1046557620" fromLane="0" toLane="0"/>
    <connection from="-1011179082#1" to="1011179082#1" fromLane="0" toLane="0"/>

    <connection from="-1011179083" to="-1011179080#1" fromLane="0" toLane="0"/>
    <connection from="-1011179083" to="1011179083" fromLane="0" toLane="0"/>

    <connection from="-1011179086#0" to="1011179081" fromLane="0" toLane="0"/>
    <connection from="-1011179086#0" to="1011179085" fromLane="0" toLane="0"/>
    <connection from="-1011179086#0" to="1011179086#0" fromLane="0" toLane="0"/>

    <connection from="-1011179086#1" to="1011179082#0" fromLane="0" toLane="0"/>
    <connection from="-1011179086#1" to="-1011179086#0" fromLane="0" toLane="0"/>
    <connection from="-1011179086#1" to="1011179086#1" fromLane="0" toLane="0"/>

    <connection from="-1032262905#0" to="-255416224#3" fromLane="0" toLane="0"/>

    <connection from="-1032262905#1" to="-490216931#3" fromLane="0" toLane="0"/>
    <connection from="-1032262905#1" to="-1032262905#0" fromLane="0" toLane="0"/>
    <connection from="-1032262905#1" to="1032262905#1" fromLane="0" toLane="0"/>

    <connection from="-1032262905#2" to="255416223#0" fromLane="0" toLane="0"/>
    <connection from="-1032262905#2" to="-1032262905#1" fromLane="0" toLane="0"/>
    <connection from="-1032262905#2" to="1032262905#2" fromLane="0" toLane="0"/>

    <connection from="-1032670004" to="479751381#2" fromLane="0" toLane="0"/>
    <connection from="-1032670004" to="1032670004" fromLane="0" toLane="0"/>

    <connection from="-1032698565" to="622873934#1" fromLane="0" toLane="0"/>
    <connection from="-1032698565" to="1032698565" fromLane="0" toLane="0"/>

    <connection from="-1032698566" to="479797327#6" fromLane="0" toLane="0" visibility="9.00"/>

    <connection from="-1032698567" to="1032698568#2" fromLane="0" toLane="0"/>
    <connection from="-1032698567" to="-1032698568#1" fromLane="0" toLane="0"/>
    <connection from="-1032698567" to="1032698567" fromLane="0" toLane="0"/>

    <connection from="-1032698568#0" to="479797239#1" fromLane="0" toLane="0"/>
    <connection from="-1032698568#0" to="-479797239#0" fromLane="0" toLane="0"/>
    <connection from="-1032698568#0" to="1032698568#0" fromLane="0" toLane="0"/>

    <connection from="-1032698568#1" to="-1032698568#0" fromLane="0" toLane="0"/>
    <connection from="-1032698568#1" to="-1032698568#3" fromLane="0" toLane="0"/>
    <connection from="-1032698568#1" to="1032698568#1" fromLane="0" toLane="0"/>

    <connection from="-1032698568#2" to="-1032698568#1" fromLane="0" toLane="0"/>
    <connection from="-1032698568#2" to="1032698567" fromLane="0" toLane="0"/>
    <connection from="-1032698568#2" to="1032698568#2" fromLane="0" toLane="0"/>

    <connection from="-1032698568#3" to="-1032698568#2" fromLane="0" toLane="0"/>
    <connection from="-1032698568#3" to="-1032698567" fromLane="0" toLane="0"/>
    <connection from="-1032698568#3" to="1032698568#3" fromLane="0" toLane="0"/>

    <connection from="-1032698569" to="1042334798" fromLane="0" toLane="0"/>

    <connection from="-1032698570#0" to="1042334797" fromLane="0" toLane="0"/>
    <connection from="-1032698570#0" to="-1042334798" fromLane="0" toLane="0"/>

    <connection from="-1032698570#1" to="-1032698570#0" fromLane="0" toLane="0"/>

    <connection from="-1032698572" to="1032698573#1" fromLane="0" toLane="0"/>
    <connection from="-1032698572" to="-1032698573#0" fromLane="0" toLane="0"/>
    <connection from="-1032698572" to="1032698572" fromLane="0" toLane="0"/>

    <connection from="-1032698573#0" to="-885883449#8" fromLane="0" toLane="0"/>
    <connection from="-1032698573#0" to="885883449#9" fromLane="0" toLane="0"/>
    <connection from="-1032698573#0" to="-1032698574" fromLane="0" toLane="0"/>
    <connection from="-1032698573#0" to="-1032698570#1" fromLane="0" toLane="0"/>
    <connection from="-1032698573#0" to="1032698573#0" fromLane="0" toLane="0"/>

    <connection from="-1032698573#1" to="-1032698573#0" fromLane="0" toLane="0"/>
    <connection from="-1032698573#1" to="1032698572" fromLane="0" toLane="0"/>
    <connection from="-1032698573#1" to="1032698573#1" fromLane="0" toLane="0"/>

    <connection from="-1032698574" to="-479797300#1" fromLane="0" toLane="0"/>
    <connection from="-1032698574" to="479797300#2" fromLane="0" toLane="0"/>
    <connection from="-1032698574" to="1032698574" fromLane="0" toLane="0"/>

    <connection from="-1032708727" to="854030731#0" fromLane="0" toLane="0"/>
    <connection from="-1032708727" to="1032708727" fromLane="0" toLane="0"/>

    <connection from="-1032717783" to="-1032717784" fromLane="0" toLane="0"/>
    <connection from="-1032717783" to="-658131248" fromLane="0" toLane="0"/>
    <connection from="-1032717783" to="1032717783" fromLane="0" toLane="0"/>

    <connection from="-1032717784" to="-255187763#3" fromLane="0" toLane="0"/>
    <connection from="-1032717784" to="255187763#4" fromLane="0" toLane="0"/>
    <connection from="-1032717784" to="1032717784" fromLane="0" toLane="0"/>

    <connection from="-1032950210" to="-216064942#2" fromLane="0" toLane="0"/>
    <connection from="-1032950210" to="216064942#3" fromLane="0" toLane="0"/>
    <connection from="-1032950210" to="1032950210" fromLane="0" toLane="0"/>

    <connection from="-1032950211" to="1032950228#13" fromLane="0" toLane="0"/>
    <connection from="-1032950211" to="-1032950228#12" fromLane="0" toLane="0"/>
    <connection from="-1032950211" to="1032950211" fromLane="0" toLane="0"/>

    <connection from="-1032950212#2" to="1032950213" fromLane="0" toLane="0"/>

    <connection from="-1032950212#3" to="-1032950212#2" fromLane="0" toLane="0"/>
    <connection from="-1032950212#3" to="-1032950211" fromLane="0" toLane="0"/>
    <connection from="-1032950212#3" to="1032950212#3" fromLane="0" toLane="0"/>

    <connection from="-1032950217" to="1032950222#4" fromLane="0" toLane="0"/>
    <connection from="-1032950217" to="-1032950222#3" fromLane="0" toLane="0"/>
    <connection from="-1032950217" to="1032950217" fromLane="0" toLane="0"/>

    <connection from="-1032950218#0" to="-1032950228#8" fromLane="0" toLane="0"/>
    <connection from="-1032950218#0" to="1032950228#9" fromLane="0" toLane="0"/>
    <connection from="-1032950218#0" to="1032950218#0" fromLane="0" toLane="0"/>

    <connection from="-1032950218#1" to="-1032950219#1" fromLane="0" toLane="0"/>
    <connection from="-1032950218#1" to="-1032950218#0" fromLane="0" toLane="0"/>
    <connection from="-1032950218#1" to="1032950219#2" fromLane="0" toLane="0"/>
    <connection from="-1032950218#1" to="1032950218#1" fromLane="0" toLane="0"/>

    <connection from="-1032950218#2" to="-1032950218#1" fromLane="0" toLane="0"/>
    <connection from="-1032950218#2" to="-1032950217" fromLane="0" toLane="0"/>
    <connection from="-1032950218#2" to="1032950218#2" fromLane="0" toLane="0"/>

    <connection from="-1032950219#0" to="-1032950228#6" fromLane="0" toLane="0"/>
    <connection from="-1032950219#0" to="1032950228#7" fromLane="0" toLane="0"/>
    <connection from="-1032950219#0" to="1032950219#0" fromLane="0" toLane="0"/>

    <connection from="-1032950219#1" to="1032950222#1" fromLane="0" toLane="0"/>
    <connection from="-1032950219#1" to="-1032950219#0" fromLane="0" toLane="0"/>
    <connection from="-1032950219#1" to="-1032950222#0" fromLane="0" toLane="0"/>
    <connection from="-1032950219#1" to="1032950219#1" fromLane="0" toLane="0"/>

    <connection from="-1032950219#2" to="1032950218#1" fromLane="0" toLane="0"/>
    <connection from="-1032950219#2" to="-1032950219#1" fromLane="0" toLane="0"/>
    <connection from="-1032950219#2" to="-1032950218#0" fromLane="0" toLane="0"/>
    <connection from="-1032950219#2" to="1032950219#2" fromLane="0" toLane="0"/>

    <connection from="-1032950220" to="1032950228#5" fromLane="0" toLane="0"/>
    <connection from="-1032950220" to="-1032950228#4" fromLane="0" toLane="0"/>
    <connection from="-1032950220" to="1032950220" fromLane="0" toLane="0"/>

    <connection from="-1032950221" to="1032950228#4" fromLane="0" toLane="0"/>
    <connection from="-1032950221" to="-1032950228#3" fromLane="0" toLane="0"/>
    <connection from="-1032950221" to="1032950221" fromLane="0" toLane="0"/>

    <connection from="-1032950222#0" to="-1032950228#7" fromLane="0" toLane="0"/>
    <connection from="-1032950222#0" to="1032950228#8" fromLane="0" toLane="0"/>
    <connection from="-1032950222#0" to="1032950222#0" fromLane="0" toLane="0"/>

    <connection from="-1032950222#1" to="-1032950219#0" fromLane="0" toLane="0"/>
    <connection from="-1032950222#1" to="-1032950222#0" fromLane="0" toLane="0"/>
    <connection from="-1032950222#1" to="1032950219#1" fromLane="0" toLane="0"/>
    <connection from="-1032950222#1" to="1032950222#1" fromLane="0" toLane="0"/>

    <connection from="-1032950222#2" to="-1032950222#1" fromLane="0" toLane="0"/>

    <connection from="-1032950222#3" to="1032950215" fromLane="0" toLane="0"/>
    <connection from="-1032950222#3" to="-1032950222#2" fromLane="0" toLane="0"/>

    <connection from="-1032950223" to="1032950228#3" fromLane="0" toLane="0"/>
    <connection from="-1032950223" to="-1032950228#2" fromLane="0" toLane="0"/>
    <connection from="-1032950223" to="1032950223" fromLane="0" toLane="0"/>

    <connection from="-1032950224" to="1032950228#2" fromLane="0" toLane="0"/>
    <connection from="-1032950224" to="-1032950228#1" fromLane="0" toLane="0"/>
    <connection from="-1032950224" to="1032950224" fromLane="0" toLane="0"/>

    <connection from="-1032950225#0" to="1032950228#1" fromLane="0" toLane="0"/>
    <connection from="-1032950225#0" to="-1032950228#0" fromLane="0" toLane="0"/>
    <connection from="-1032950225#0" to="1032950225#0" fromLane="0" toLane="0"/>

    <connection from="-1032950225#1" to="-1032950224" fromLane="0" toLane="0"/>
    <connection from="-1032950225#1" to="-1032950225#0" fromLane="0" toLane="0"/>
    <connection from="-1032950225#1" to="1032950225#1" fromLane="0" toLane="0"/>

    <connection from="-1032950225#2" to="-1032950223" fromLane="0" toLane="0"/>
    <connection from="-1032950225#2" to="-1032950225#1" fromLane="0" toLane="0"/>
    <connection from="-1032950225#2" to="1032950225#2" fromLane="0" toLane="0"/>

    <connection from="-1032950225#3" to="-1032950221" fromLane="0" toLane="0"/>
    <connection from="-1032950225#3" to="-1032950225#2" fromLane="0" toLane="0"/>
    <connection from="-1032950225#3" to="1032950225#3" fromLane="0" toLane="0"/>

    <connection from="-1032950225#4" to="-1032950220" fromLane="0" toLane="0"/>
    <connection from="-1032950225#4" to="-1032950225#3" fromLane="0" toLane="0"/>
    <connection from="-1032950225#4" to="1032950226#0" fromLane="0" toLane="0"/>
    <connection from="-1032950225#4" to="1032950225#4" fromLane="0" toLane="0"/>

    <connection from="-1032950226#0" to="1032950225#4" fromLane="0" toLane="0"/>
    <connection from="-1032950226#0" to="-1032950220" fromLane="0" toLane="0"/>
    <connection from="-1032950226#0" to="-1032950225#3" fromLane="0" toLane="0"/>
    <connection from="-1032950226#0" to="1032950226#0" fromLane="0" toLane="0"/>

    <connection from="-1032950226#1" to="-1032950227#1" fromLane="0" toLane="0"/>
    <connection from="-1032950226#1" to="-1032950226#0" fromLane="0" toLane="0"/>
    <connection from="-1032950226#1" to="1032950226#1" fromLane="0" toLane="0"/>

    <connection from="-1032950227#0" to="1032950228#6" fromLane="0" toLane="0"/>
    <connection from="-1032950227#0" to="-1032950228#5" fromLane="0" toLane="0"/>
    <connection from="-1032950227#0" to="1032950227#0" fromLane="0" toLane="0"/>

    <connection from="-1032950227#1" to="-1032950227#0" fromLane="0" toLane="0"/>
    <connection from="-1032950227#1" to="-1032950225#4" fromLane="0" toLane="0"/>
    <connection from="-1032950227#1" to="1032950227#1" fromLane="0" toLane="0"/>

    <connection from="-1032950228#0" to="1032950229" fromLane="0" toLane="0"/>

    <connection from="-1032950228#1" to="-1032950228#0" fromLane="0" toLane="0"/>
    <connection from="-1032950228#1" to="1032950225#0" fromLane="0" toLane="0"/>
    <connection from="-1032950228#1" to="1032950228#1" fromLane="0" toLane="0"/>

    <connection from="-1032950228#10" to="-1032950228#9" fromLane="0" toLane="0"/>
    <connection from="-1032950228#10" to="-1032950226#1" fromLane="0" toLane="0"/>
    <connection from="-1032950228#10" to="1032950228#10" fromLane="0" toLane="0"/>

    <connection from="-1032950228#11" to="-1032950219#2" fromLane="0" toLane="0"/>
    <connection from="-1032950228#11" to="-1032950228#10" fromLane="0" toLane="0"/>
    <connection from="-1032950228#11" to="1032950228#11" fromLane="0" toLane="0"/>

    <connection from="-1032950228#12" to="-1032950228#11" fromLane="0" toLane="0"/>
    <connection from="-1032950228#12" to="-1032950212#3" fromLane="0" toLane="0"/>
    <connection from="-1032950228#12" to="1032950228#12" fromLane="0" toLane="0"/>

    <connection from="-1032950228#2" to="-1032950228#1" fromLane="0" toLane="0"/>
    <connection from="-1032950228#2" to="1032950224" fromLane="0" toLane="0"/>
    <connection from="-1032950228#2" to="1032950228#2" fromLane="0" toLane="0"/>

    <connection from="-1032950228#3" to="-1032950228#2" fromLane="0" toLane="0"/>
    <connection from="-1032950228#3" to="1032950223" fromLane="0" toLane="0"/>
    <connection from="-1032950228#3" to="1032950228#3" fromLane="0" toLane="0"/>

    <connection from="-1032950228#4" to="-1032950228#3" fromLane="0" toLane="0"/>
    <connection from="-1032950228#4" to="1032950221" fromLane="0" toLane="0"/>
    <connection from="-1032950228#4" to="1032950228#4" fromLane="0" toLane="0"/>

    <connection from="-1032950228#5" to="-1032950228#4" fromLane="0" toLane="0"/>
    <connection from="-1032950228#5" to="1032950220" fromLane="0" toLane="0"/>
    <connection from="-1032950228#5" to="1032950228#5" fromLane="0" toLane="0"/>

    <connection from="-1032950228#6" to="-1032950228#5" fromLane="0" toLane="0"/>
    <connection from="-1032950228#6" to="1032950227#0" fromLane="0" toLane="0"/>
    <connection from="-1032950228#6" to="1032950228#6" fromLane="0" toLane="0"/>

    <connection from="-1032950228#7" to="1032950219#0" fromLane="0" toLane="0"/>
    <connection from="-1032950228#7" to="-1032950228#6" fromLane="0" toLane="0"/>
    <connection from="-1032950228#7" to="1032950228#7" fromLane="0" toLane="0"/>

    <connection from="-1032950228#8" to="1032950222#0" fromLane="0" toLane="0"/>
    <connection from="-1032950228#8" to="-1032950228#7" fromLane="0" toLane="0"/>
    <connection from="-1032950228#8" to="1032950228#8" fromLane="0" toLane="0"/>

    <connection from="-1032950228#9" to="1032950218#0" fromLane="0" toLane="0"/>
    <connection from="-1032950228#9" to="-1032950228#8" fromLane="0" toLane="0"/>
    <connection from="-1032950228#9" to="1032950228#9" fromLane="0" toLane="0"/>

    <connection from="-1032955264" to="-1032955265#2" fromLane="0" toLane="0"/>
    <connection from="-1032955264" to="1032955265#3" fromLane="0" toLane="0"/>
    <connection from="-1032955264" to="1032955264" fromLane="0" toLane="0"/>

    <connection from="-1032955265#1" to="1032955265#5" fromLane="0" toLane="0"/>
    <connection from="-1032955265#1" to="-1032955265#3" fromLane="0" toLane="0"/>
    <connection from="-1032955265#1" to="1032955265#1" fromLane="0" toLane="0"/>

    <connection from="-1032955265#2" to="1032959319#0" fromLane="0" toLane="0"/>
    <connection from="-1032955265#2" to="-1032955265#1" fromLane="0" toLane="0"/>
    <connection from="-1032955265#2" to="1032955265#2" fromLane="0" toLane="0"/>

    <connection from="-1032955265#3" to="1032955264" fromLane="0" toLane="0"/>
    <connection from="-1032955265#3" to="-1032955265#2" fromLane="0" toLane="0"/>
    <connection from="-1032955265#3" to="1032955265#3" fromLane="0" toLane="0"/>

    <connection from="-1032955265#5" to="-1032955265#3" fromLane="0" toLane="0"/>
    <connection from="-1032955265#5" to="1032955265#1" fromLane="0" toLane="0"/>
    <connection from="-1032955265#5" to="1032955265#5" fromLane="0" toLane="0"/>

    <connection from="-1032955265#6" to="-1032955265#5" fromLane="0" toLane="0"/>
    <connection from="-1032955265#6" to="1032955265#6" fromLane="0" toLane="0"/>

    <connection from="-1032959314#0" to="1032959315#1" fromLane="0" toLane="0"/>
    <connection from="-1032959314#0" to="-1032959315#0" fromLane="0" toLane="0"/>
    <connection from="-1032959314#0" to="1032959314#0" fromLane="0" toLane="0"/>

    <connection from="-1032959314#1" to="-1032959314#0" fromLane="0" toLane="0"/>
    <connection from="-1032959314#1" to="1032959314#1" fromLane="0" toLane="0"/>

    <connection from="-1032959314#2" to="1032961515#0" fromLane="0" toLane="0"/>