<?xml version="1.0" encoding="UTF-8"?>

<!-- generated on 2022-06-12 14:35:20 by Eclipse SUMO netedit Version 1.13.0
<configuration xmlns:xsi="http://www.w3.org/2001/XMLSchema-instance" xsi:noNamespaceSchemaLocation="http://sumo.dlr.de/xsd/netconvertConfiguration.xsd">

    <input>
        <sumo-net-file value="C:\Users\hamza\Desktop\ec\ec.net.xml"/>
    </input>

    <output>
        <output-file value="C:\Users\hamza\Desktop\ec\ec.net.xml"/>
        <plain-output-prefix value="C:\Users\hamza\Desktop\ec\ec"/>
        <output.street-names value="true"/>
    </output>

    <processing>
        <geometry.min-radius.fix.railways value="false"/>
        <geometry.max-grade.fix value="false"/>
        <offset.disable-normalization value="true"/>
        <lefthand value="false"/>
    </processing>

    <junctions>
        <no-internal-links value="false"/>
        <no-turnarounds value="true"/>
        <junctions.corner-detail value="5"/>
        <junctions.limit-turn-speed value="5.5"/>
        <rectangular-lane-cut value="false"/>
    </junctions>

    <pedestrian>
        <walkingareas value="true"/>
    </pedestrian>

    <report>
        <aggregate-warnings value="5"/>
    </report>

</configuration>
-->

<edges version="1.9" xmlns:xsi="http://www.w3.org/2001/XMLSchema-instance" xsi:noNamespaceSchemaLocation="http://sumo.dlr.de/xsd/edges_file.xsd">
    <edge id="-1005819185" from="9280128416" to="9280145721" priority="1" type="highway.service" numLanes="1" speed="5.56" disallow="tram rail_urban rail rail_electric rail_fast ship">
        <lane index="0">
            <param key="origId" value="1005819185"/>
        </lane>
    </edge>
    <edge id="-1005819186#0" from="9280128416" to="9280145723" priority="1" type="highway.service" numLanes="1" speed="5.56" shape="7310.04,5199.08 7302.42,5220.32 7190.06,5180.10 7183.44,5178.18" disallow="tram rail_urban rail rail_electric rail_fast ship">
        <lane index="0">
            <param key="origId" value="1005819186"/>
        </lane>
    </edge>
    <edge id="-1005819186#1" from="9280145736" to="9280128416" priority="1" type="highway.service" numLanes="1" speed="5.56" shape="7297.99,5171.75 7317.19,5179.14 7310.04,5199.08" disallow="tram rail_urban rail rail_electric rail_fast ship">
        <lane index="0">
            <param key="origId" value="1005819186"/>
        </lane>
    </edge>
    <edge id="-1005819186#2" from="9280145721" to="9280145736" priority="1" type="highway.service" numLanes="1" speed="5.56" shape="7193.33,5156.11 7200.57,5135.41 7297.99,5171.75" disallow="tram rail_urban rail rail_electric rail_fast ship">
        <lane index="0">
            <param key="origId" value="1005819186"/>
        </lane>
    </edge>
    <edge id="-1005819186#3" from="9280145723" to="9280145721" priority="1" type="highway.service" numLanes="1" speed="5.56" shape="7183.44,5178.18 7185.90,5175.32 7193.33,5156.11" disallow="tram rail_urban rail rail_electric rail_fast ship">
        <lane index="0">
            <param key="origId" value="1005819186"/>
        </lane>
    </edge>
    <edge id="-1005819188" from="4728408497" to="9280145736" priority="1" type="highway.service" numLanes="1" speed="5.56" disallow="tram rail_urban rail rail_electric rail_fast ship">
        <lane index="0">
            <param key="origId" value="1005819188"/>
        </lane>
    </edge>
    <edge id="-1005819189#0" from="cluster_9563800875_9563800876" to="6409037872" priority="17" type="railway.tram" numLanes="1" speed="13.89" shape="6723.51,4634.88 6722.79,4635.81 6718.78,4642.78" spreadType="center" allow="tram">
        <lane index="0">
            <param key="origId" value="1005819189"/>
        </lane>
        <param key="origFrom" value="9563800875"/>
    </edge>
    <edge id="-1005819189#1" from="4728408631" to="cluster_9563800875_9563800876" priority="17" type="railway.tram" numLanes="1" speed="13.89" shape="6736.75,4625.26 6732.05,4627.16 6726.91,4630.46 6723.51,4634.88" spreadType="center" allow="tram">
        <lane index="0">
            <param key="origId" value="1005819189"/>
        </lane>
        <param key="origFrom" value="4728408631"/>
        <param key="origTo" value="9563800875"/>
    </edge>
    <edge id="-1005819189#2" from="7120440123" to="4728408631" priority="17" type="railway.tram" numLanes="1" speed="13.89" shape="6750.97,4626.29 6742.81,4624.91 6736.75,4625.26" spreadType="center" allow="tram">
        <lane index="0">
            <param key="origId" value="1005819189"/>
        </lane>
        <param key="origTo" value="4728408631"/>
    </edge>
    <edge id="-1005819189#3" from="9280145739" to="7120440123" priority="17" type="railway.tram" numLanes="1" speed="13.89" spreadType="center" allow="tram">
        <lane index="0">
            <param key="origId" value="1005819189"/>
        </lane>
    </edge>
    <edge id="-1005819190" from="7120440136" to="6409038215" priority="17" type="railway.tram" numLanes="1" speed="13.89" spreadType="center" allow="tram">
        <lane index="0">
            <param key="origId" value="1005819190"/>
        </lane>
    </edge>
    <edge id="-1005819191" from="7120440186" to="9280145753" priority="17" type="railway.tram" numLanes="1" speed="13.89" shape="9066.79,4198.41 9057.31,4211.17 9052.69,4215.60 9047.81,4218.33 9022.54,4225.83 9014.52,4229.46 9005.07,4235.36" spreadType="center" allow="tram">
        <lane index="0">
            <param key="origId" value="1005819191"/>
        </lane>
    </edge>
    <edge id="-100639942#0" from="4793818815" to="1163416519" name="الضياء" priority="3" type="highway.residential" numLanes="1" speed="13.89" shape="9131.76,4864.55 9248.47,4889.49 9337.16,4908.45 9384.90,4918.34 9401.07,4922.11 9513.85,4946.23" disallow="pedestrian tram rail_urban rail rail_electric rail_fast ship">
        <lane index="0">
            <param key="origId" value="100639942"/>
        </lane>
    </edge>
    <edge id="-100639942#1" from="282904279" to="4793818815" name="الضياء" priority="3" type="highway.residential" numLanes="1" speed="13.89" shape="9074.29,4852.25 9086.01,4854.77 9131.76,4864.55" disallow="pedestrian tram rail_urban rail rail_electric rail_fast ship">
        <lane index="0">
            <param key="origId" value="100639942"/>
        </lane>
    </edge>
    <edge id="-100646196#0" from="1163488265" to="1779788803" priority="1" type="highway.service" numLanes="1" speed="5.56" shape="6938.84,5005.99 6933.29,4997.57 6931.08,4989.36 6931.26,4976.36 6933.39,4962.44 6938.44,4956.56 6944.53,4951.06 6951.33,4950.10 6957.56,4950.89 6963.70,4954.11 6968.22,4957.49 6972.18,4965.90 6973.16,4973.46 6970.58,4979.05" disallow="tram rail_urban rail rail_electric rail_fast ship">
        <lane index="0">
            <param key="origId" value="100646196"/>
        </lane>
    </edge>
    <edge id="-100646196#1" from="6163184984" to="1163488265" priority="1" type="highway.service" numLanes="1" speed="5.56" shape="6957.15,4995.63 6955.95,4996.89 6947.30,5002.23 6938.84,5005.99" disallow="tram rail_urban rail rail_electric rail_fast ship">
        <lane index="0">
            <param key="origId" value="100646196"/>
        </lane>
    </edge>
    <edge id="-100646196#2" from="1779788803" to="6163184984" priority="1" type="highway.service" numLanes="1" speed="5.56" shape="6970.58,4979.05 6965.50,4986.69 6960.36,4991.98 6957.15,4995.63" disallow="tram rail_urban rail rail_electric rail_fast ship">
        <lane index="0">
            <param key="origId" value="100646196"/>
        </lane>
    </edge>
    <edge id="-100646198#0" from="6409038282" to="1163488265" priority="1" type="highway.service" numLanes="1" speed="5.56" disallow="tram rail_urban rail rail_electric rail_fast ship">
        <lane index="0">
            <param key="origId" value="100646198"/>
        </lane>
        <param key="origFrom" value="6409038282"/>
    </edge>
    <edge id="-100646217#0" from="6409038390" to="5882920633" priority="4" type="highway.unclassified" numLanes="1" speed="13.89" shape="6592.29,4979.64 6589.45,4982.24 6578.50,4981.15" disallow="pedestrian tram rail_urban rail rail_electric rail_fast ship">
        <lane index="0">
            <param key="origId" value="100646217 479797305"/>
        </lane>
    </edge>
    <edge id="-100646217#1" from="6409037878" to="6409038390" priority="4" type="highway.unclassified" numLanes="1" speed="13.89" shape="6605.49,4962.00 6594.98,4977.17 6592.29,4979.64" disallow="pedestrian tram rail_urban rail rail_electric rail_fast ship">
        <lane index="0">
            <param key="origId" value="100646217"/>
        </lane>
        <param key="origFrom" value="6409037878"/>
    </edge>
    <edge id="-100646217#3" from="9566407922" to="1163488210" priority="4" type="highway.unclassified" numLanes="1" speed="13.89" disallow="pedestrian tram rail_urban rail rail_electric rail_fast ship">
        <lane index="0">
            <param key="origId" value="100646217"/>
        </lane>
        <param key="origTo" value="1163488210"/>
    </edge>
    <edge id="-100646220#0" from="2254294841" to="4728408580" priority="4" type="highway.unclassified" numLanes="1" speed="13.89" shape="7043.55,4722.33 6980.62,4697.94 6844.16,4645.77 6743.73,4607.39" disallow="pedestrian tram rail_urban rail rail_electric rail_fast ship">
        <lane index="0">
            <param key="origId" value="100646220 479797294"/>
        </lane>
        <param key="origTo" value="4728408580"/>
    </edge>
    <edge id="-100646220#1" from="2254282615" to="2254294841" priority="4" type="highway.unclassified" numLanes="1" speed="13.89" disallow="pedestrian tram rail_urban rail rail_electric rail_fast ship">
        <lane index="0">
            <param key="origId" value="100646220"/>
        </lane>
    </edge>
    <edge id="-100646220#2" from="2254336646" to="2254282615" priority="4" type="highway.unclassified" numLanes="1" speed="13.89" disallow="pedestrian tram rail_urban rail rail_electric rail_fast ship">
        <lane index="0">
            <param key="origId" value="100646220"/>
        </lane>
    </edge>
    <edge id="-100646220#3" from="1163488297" to="2254336646" priority="4" type="highway.unclassified" numLanes="1" speed="13.89" shape="7202.35,4783.89 7117.66,4751.06 7094.12,4741.93" disallow="pedestrian tram rail_urban rail rail_electric rail_fast ship">
        <lane index="0">
            <param key="origId" value="100646220"/>
        </lane>
    </edge>
    <edge id="-100646234" from="9566822608" to="2562268363" name="الشرطة" priority="4" type="highway.unclassified" numLanes="1" speed="13.89" shape="7281.39,3512.24 7293.51,3520.34 7298.64,3523.17 7304.04,3523.87 7310.38,3524.02 7371.60,3520.08" disallow="pedestrian tram rail_urban rail rail_electric rail_fast ship">
        <lane index="0">
            <param key="origId" value="100646234"/>
        </lane>
    </edge>
    <edge id="-100646242#1" from="1163488568" to="cluster_1163488566_1163488567" name="الاقواع" priority="3" type="highway.residential" numLanes="1" speed="13.89" shape="7702.41,3548.91 7702.41,3496.19" disallow="pedestrian tram rail_urban rail rail_electric rail_fast ship">
        <lane index="0">
            <param key="origId" value="100646242"/>
        </lane>
        <param key="origTo" value="1163488567"/>
    </edge>
    <edge id="-100646243" from="9581045845" to="1163488568" name="الاقواع" priority="3" type="highway.residential" numLanes="1" speed="13.89" shape="7695.46,3600.58 7696.55,3557.37 7702.41,3548.91" disallow="pedestrian tram rail_urban rail rail_electric rail_fast ship">
        <lane index="0">
            <param key="origId" value="100646243"/>
        </lane>
    </edge>
    <edge id="-100646245#0" from="9581045845" to="4732783454" name="الاقواع" priority="3" type="highway.residential" numLanes="1" speed="13.89" shape="7695.46,3600.58 7706.61,3600.99 7708.62,3677.91" disallow="pedestrian tram rail_urban rail rail_electric rail_fast ship">
        <lane index="0">
            <param key="origId" value="100646245 1040591002"/>
        </lane>
    </edge>
    <edge id="-100646245#1" from="5885080505" to="9581045845" priority="3" type="highway.residential" numLanes="1" speed="13.89" disallow="pedestrian tram rail_urban rail rail_electric rail_fast ship">
        <lane index="0">
            <param key="origId" value="100646245"/>
        </lane>
    </edge>
    <edge id="-100646245#2" from="4732783455" to="5885080505" priority="3" type="highway.residential" numLanes="1" speed="13.89" shape="7598.20,3677.26 7596.05,3606.44 7597.55,3601.35 7602.33,3599.02" disallow="pedestrian tram rail_urban rail rail_electric rail_fast ship">
        <lane index="0">
            <param key="origId" value="100646245"/>
        </lane>
    </edge>
    <edge id="-100646245#3" from="1163488590" to="4732783455" priority="3" type="highway.residential" numLanes="1" speed="13.89" disallow="pedestrian tram rail_urban rail rail_electric rail_fast ship">
        <lane index="0">
            <param key="origId" value="100646245"/>
        </lane>
    </edge>
    <edge id="-100646248#0" from="1163488610" to="1163488608" name="ابن سلمة" priority="3" type="highway.residential" numLanes="1" speed="13.89" disallow="pedestrian tram rail_urban rail rail_electric rail_fast ship">
        <lane index="0">
            <param key="origId" value="100646248"/>
        </lane>
    </edge>
    <edge id="-100646248#1" from="4732783456" to="1163488610" name="ابن سلمة" priority="3" type="highway.residential" numLanes="1" speed="13.89" disallow="pedestrian tram rail_urban rail rail_electric rail_fast ship">
        <lane index="0">
            <param key="origId" value="100646248"/>
        </lane>
    </edge>
    <edge id="-100646248#2" from="1163488611" to="4732783456" name="ابن سلمة" priority="3" type="highway.residential" numLanes="1" speed="13.89" disallow="pedestrian tram rail_urban rail rail_electric rail_fast ship">
        <lane index="0">
            <param key="origId" value="100646248"/>
        </lane>
    </edge>
    <edge id="-100646252#0" from="1163488622" to="1163488610" name="بوالغميل" priority="3" type="highway.residential" numLanes="1" speed="13.89" shape="7676.48,3496.42 7608.14,3496.66 7601.14,3492.34 7598.50,3480.59 7598.06,3353.32" disallow="pedestrian tram rail_urban rail rail_electric rail_fast ship">
        <lane index="0">
            <param key="origId" value="100646252 100646251"/>
        </lane>
    </edge>
    <edge id="-100646252#1" from="cluster_1163488566_1163488567" to="1163488622" name="بوالغميل" priority="3" type="highway.residential" numLanes="1" speed="13.89" shape="7702.41,3496.19 7676.48,3496.42" disallow="pedestrian tram rail_urban rail rail_electric rail_fast ship">
        <lane index="0">
            <param key="origId" value="100646252"/>
        </lane>
        <param key="origFrom" value="1163488567"/>
    </edge>
    <edge id="-100646254" from="1163488622" to="1163488625" name="ابو مجاهد" priority="3" type="highway.residential" numLanes="1" speed="13.89" disallow="pedestrian tram rail_urban rail rail_electric rail_fast ship">
        <lane index="0">
            <param key="origId" value="100646254"/>
        </lane>
    </edge>
    <edge id="-100646256#0" from="6165779266" to="1163488627" name="الحوة" priority="3" type="highway.residential" numLanes="1" speed="13.89" disallow="pedestrian tram rail_urban rail rail_electric rail_fast ship">
        <lane index="0">
            <param key="origId" value="100646256"/>
        </lane>
    </edge>
    <edge id="-100646256#1" from="cluster_1163488566_1163488567" to="6165779266" name="الحوة" priority="3" type="highway.residential" numLanes="1" speed="13.89" shape="7702.41,3474.78 7754.94,3476.54" disallow="pedestrian tram rail_urban rail rail_electric rail_fast ship">
        <lane index="0">
            <param key="origId" value="100646256"/>
        </lane>
        <param key="origFrom" value="1163488566"/>
    </edge>
    <edge id="-100646258#0" from="1163488634" to="1163488627" name="الحوة" priority="3" type="highway.residential" numLanes="1" speed="13.89" disallow="pedestrian tram rail_urban rail rail_electric rail_fast ship">
        <lane index="0">
            <param key="origId" value="100646258"/>
        </lane>
    </edge>
    <edge id="-100646258#1" from="1163488636" to="1163488634" name="الحوة" priority="3" type="highway.residential" numLanes="1" speed="13.89" disallow="pedestrian tram rail_urban rail rail_electric rail_fast ship">
        <lane index="0">
            <param key="origId" value="100646258"/>
        </lane>
    </edge>
    <edge id="-100646260#0" from="4732783453" to="1163488625" name="اجياد" priority="3" type="highway.residential" numLanes="1" speed="13.89" disallow="pedestrian tram rail_urban rail rail_electric rail_fast ship">
        <lane index="0">
            <param key="origId" value="100646260"/>
        </lane>
    </edge>
    <edge id="-100646260#1" from="1163488639" to="4732783453" name="اجياد" priority="3" type="highway.residential" numLanes="1" speed="13.89" disallow="pedestrian tram rail_urban rail rail_electric rail_fast ship">
        <lane index="0">
            <param key="origId" value="100646260"/>
        </lane>
    </edge>
    <edge id="-100646260#2" from="1163488641" to="1163488639" name="اجياد" priority="3" type="highway.residential" numLanes="1" speed="13.89" disallow="pedestrian tram rail_urban rail rail_electric rail_fast ship">
        <lane index="0">
            <param key="origId" value="100646260"/>
        </lane>
    </edge>
    <edge id="-100646260#3" from="1163488634" to="1163488641" name="اجياد" priority="3" type="highway.residential" numLanes="1" speed="13.89" shape="7958.54,3488.99 7949.45,3462.52 7943.02,3445.85 7934.54,3437.22 7925.20,3435.00 7916.06,3435.69 7898.23,3436.70 7882.30,3436.78 7862.86,3435.51 7836.51,3433.33" disallow="pedestrian tram rail_urban rail rail_electric rail_fast ship">
        <lane index="0">
            <param key="origId" value="100646260"/>
        </lane>
    </edge>
    <edge id="-100646264#0" from="1163488611" to="1163488647" name="شارع البيان" priority="3" type="highway.residential" numLanes="1" speed="13.89" disallow="pedestrian tram rail_urban rail rail_electric rail_fast ship">
        <lane index="0">
            <param key="origId" value="100646264"/>
        </lane>
    </edge>
    <edge id="-100646264#1" from="1163488639" to="1163488611" name="شارع البيان" priority="3" type="highway.residential" numLanes="1" speed="13.89" disallow="pedestrian tram rail_urban rail rail_electric rail_fast ship">
        <lane index="0">
            <param key="origId" value="100646264"/>
        </lane>
    </edge>
    <edge id="-100646269#0" from="1163488660" to="1163488636" name="يودة" priority="3" type="highway.residential" numLanes="1" speed="13.89" disallow="pedestrian tram rail_urban rail rail_electric rail_fast ship">
        <lane index="0">
            <param key="origId" value="100646269"/>
        </lane>
    </edge>
    <edge id="-100646269#1" from="4793644055" to="1163488660" name="يودة" priority="3" type="highway.residential" numLanes="1" speed="13.89" shape="7846.27,3627.35 7985.80,3630.78 8000.78,3630.15 8014.37,3625.07 8037.68,3570.11" disallow="pedestrian tram rail_urban rail rail_electric rail_fast ship">
        <lane index="0">
            <param key="origId" value="100646269"/>
        </lane>
    </edge>
    <edge id="-100646270" from="764952532" to="1163488660" name="الصمعة" priority="3" type="highway.residential" numLanes="1" speed="13.89" shape="7843.90,3551.27 7848.92,3553.37 7856.84,3556.34 8037.68,3570.11" disallow="pedestrian tram rail_urban rail rail_electric rail_fast ship">
        <lane index="0">
            <param key="origId" value="100646270"/>
        </lane>
    </edge>
    <edge id="-1011007455#0" from="9327502295" to="9186866690" priority="1" type="highway.cycleway" numLanes="1" speed="8.33" shape="8833.48,3312.56 8811.15,3293.89 8788.40,3272.98 8771.02,3256.34 8763.89,3248.33 8737.53,3218.05 8721.34,3201.46 8690.03,3155.82 8673.68,3133.65 8663.72,3113.39 8657.54,3097.04 8652.19,3088.50 8636.91,3062.44 8632.63,3064.49" width="1.00" allow="pedestrian bicycle">
        <lane index="0">
            <param key="origId" value="1011007455"/>
        </lane>
    </edge>
    <edge id="-1011007455#1" from="9327502307" to="9327502295" priority="1" type="highway.cycleway" numLanes="1" speed="8.33" shape="9112.68,3548.40 9145.73,3474.94 9146.43,3467.16 9144.15,3460.57 9139.04,3456.39 9123.80,3451.78 9051.79,3430.86 9003.25,3412.58 8970.97,3399.09 8946.39,3386.71 8914.60,3368.88 8885.06,3350.45 8833.48,3312.56" width="1.00" allow="pedestrian bicycle">
        <lane index="0">
            <param key="origId" value="1011007455"/>
        </lane>
    </edge>
    <edge id="-1011007455#2" from="9327502295" to="9327502307" priority="1" type="highway.cycleway" numLanes="1" speed="8.33" shape="8833.48,3312.56 8838.58,3322.40 8855.51,3339.68 8887.80,3370.21 8935.25,3414.40 8995.22,3470.83 9048.99,3517.23 9088.62,3549.49 9095.45,3553.41 9102.90,3553.84 9104.91,3553.00 9107.94,3551.74 9112.68,3548.40" width="1.00" allow="pedestrian bicycle">
        <lane index="0">
            <param key="origId" value="1011007455"/>
        </lane>
    </edge>
    <edge id="-1011179080#0" from="9329109970" to="9329109972" priority="1" type="highway.service" numLanes="1" speed="5.56" shape="5301.00,3707.42 5327.48,3698.85 5330.93,3698.27 5334.16,3699.28 5336.39,3700.98 5337.94,3703.69 5358.07,3766.02" disallow="tram rail_urban rail rail_electric rail_fast ship">
        <lane index="0">
            <param key="origId" value="1011179080 1011179081"/>
        </lane>
    </edge>
    <edge id="-1011179080#1" from="9329109977" to="9329109970" priority="1" type="highway.service" numLanes="1" speed="5.56" disallow="tram rail_urban rail rail_electric rail_fast ship">
        <lane index="0">
            <param key="origId" value="1011179080"/>
        </lane>
    </edge>
    <edge id="-1011179082#0" from="9624221872" to="9329109973" priority="1" type="highway.service" numLanes="1" speed="5.56" disallow="tram rail_urban rail rail_electric rail_fast ship">
        <lane index="0">
            <param key="origId" value="1011179082"/>
        </lane>
    </edge>
    <edge id="-1011179082#1" from="9329109970" to="9624221872" priority="1" type="highway.service" numLanes="1" speed="5.56" disallow="tram rail_urban rail rail_electric rail_fast ship">
        <lane index="0">
            <param key="origId" value="1011179082"/>
        </lane>
    </edge>
    <edge id="-1011179083" from="5208948115" to="9329109977" priority="1" type="highway.service" numLanes="1" speed="5.56" disallow="tram rail_urban rail rail_electric rail_fast ship">
        <lane index="0">
            <param key="origId" value="1011179083"/>
        </lane>
    </edge>
    <edge id="-1011179086#0" from="9329109973" to="9329109972" priority="1" type="highway.service" numLanes="1" speed="5.56" disallow="tram rail_urban rail rail_electric rail_fast ship">
        <lane index="0">
            <param key="origId" value="1011179086"/>
        </lane>
    </edge>
    <edge id="-1011179086#1" from="9329109975" to="9329109973" priority="1" type="highway.service" numLanes="1" speed="5.56" disallow="tram rail_urban rail rail_electric rail_fast ship">
        <lane index="0">
            <param key="origId" value="1011179086"/>
        </lane>
    </edge>
    <edge id="-1032262905#0" from="2611062061" to="4732843491" name="الازيرق" priority="3" type="highway.residential" numLanes="1" speed="13.89" shape="4935.08,3484.31 4889.22,3485.16 4865.64,3487.88 4856.83,3491.78 4846.79,3499.30" disallow="pedestrian tram rail_urban rail rail_electric rail_fast ship">
        <lane index="0">
            <param key="origId" value="1032262905"/>
        </lane>
    </edge>
    <edge id="-1032262905#1" from="2611062060" to="2611062061" name="الازيرق" priority="3" type="highway.residential" numLanes="1" speed="13.89" disallow="pedestrian tram rail_urban rail rail_electric rail_fast ship">
        <lane index="0">
            <param key="origId" value="1032262905"/>
        </lane>
    </edge>
    <edge id="-1032262905#2" from="cluster_2611062058_5882321729_5882321732" to="2611062060" name="الازيرق" priority="3" type="highway.residential" numLanes="1" speed="13.89" shape="5095.33,3484.55 5048.68,3485.20" disallow="pedestrian tram rail_urban rail rail_electric rail_fast ship">
        <lane index="0">
            <param key="origId" value="1032262905"/>
        </lane>
        <param key="origFrom" value="5882321732"/>
    </edge>
    <edge id="-1032670004" from="9514636310" to="5882567554" priority="1" type="highway.service" numLanes="1" speed="5.56" shape="7376.03,5390.82 7397.55,5418.75 7406.98,5434.93" disallow="tram rail_urban rail rail_electric rail_fast ship">
        <lane index="0">
            <param key="origId" value="1032670004"/>
        </lane>
    </edge>
    <edge id="-1032698565" from="8237563266" to="4728408924" priority="1" type="highway.service" numLanes="1" speed="5.56" disallow="tram rail_urban rail rail_electric rail_fast ship">
        <lane index="0">
            <param key="origId" value="1032698565"/>
        </lane>
    </edge>
    <edge id="-1032698566" from="8237563267" to="4728408700" priority="1" type="highway.service" numLanes="1" speed="5.56" shape="6255.74,4365.52 6250.69,4356.72 6245.77,4347.39" disallow="tram rail_urban rail rail_electric rail_fast ship">
        <lane index="0">
            <param key="origId" value="1032698566"/>
        </lane>
    </edge>
    <edge id="-1032698567" from="9514897786" to="9514897793" priority="1" type="highway.service" numLanes="1" speed="5.56" disallow="tram rail_urban rail rail_electric rail_fast ship">
        <lane index="0">
            <param key="origId" value="1032698567"/>
        </lane>
    </edge>
    <edge id="-1032698568#0" from="9514897782" to="4728408334" priority="1" type="highway.service" numLanes="1" speed="5.56" disallow="tram rail_urban rail rail_electric rail_fast ship">
        <lane index="0">
            <param key="origId" value="1032698568"/>
        </lane>
    </edge>
    <edge id="-1032698568#1" from="9514897793" to="9514897782" priority="1" type="highway.service" numLanes="1" speed="5.56" disallow="tram rail_urban rail rail_electric rail_fast ship">
        <lane index="0">
            <param key="origId" value="1032698568"/>
        </lane>
    </edge>
    <edge id="-1032698568#2" from="9514897786" to="9514897793" priority="1" type="highway.service" numLanes="1" speed="5.56" shape="6118.52,4476.94 6112.98,4489.94 6107.57,4494.22 6099.20,4493.92 6053.90,4476.32 6050.14,4471.48 6049.90,4462.35 6054.19,4451.06" disallow="tram rail_urban rail rail_electric rail_fast ship">
        <lane index="0">
            <param key="origId" value="1032698568"/>
        </lane>
    </edge>
    <edge id="-1032698568#3" from="9514897782" to="9514897786" priority="1" type="highway.service" numLanes="1" speed="5.56" shape="6097.76,4337.03 6154.97,4359.84 6157.92,4367.37 6156.82,4375.42 6118.52,4476.94" disallow="tram rail_urban rail rail_electric rail_fast ship">
        <lane index="0">
            <param key="origId" value="1032698568"/>
        </lane>
    </edge>
    <edge id="-1032698569" from="9514897794" to="9514897805" priority="1" type="highway.service" numLanes="1" speed="5.56" disallow="tram rail_urban rail rail_electric rail_fast ship">
        <lane index="0">
            <param key="origId" value="1032698569"/>
        </lane>
    </edge>
    <edge id="-1032698570#0" from="9563749792" to="9514897804" priority="1" type="highway.service" numLanes="1" speed="5.56" shape="6514.51,4261.77 6536.04,4268.95 6560.50,4278.66" disallow="tram rail_urban rail rail_electric rail_fast ship">
        <lane index="0">
            <param key="origId" value="1032698570"/>
        </lane>
    </edge>
    <edge id="-1032698570#1" from="8237563274" to="9563749792" priority="1" type="highway.service" numLanes="1" speed="5.56" shape="6429.88,4253.46 6433.90,4252.75 6446.63,4251.58 6466.07,4251.67 6485.41,4253.56 6511.40,4261.09 6514.51,4261.77" disallow="tram rail_urban rail rail_electric rail_fast ship">
        <lane index="0">
            <param key="origId" value="1032698570"/>
        </lane>
    </edge>
    <edge id="-1032698572" from="9514897808" to="9514897816" priority="1" type="highway.service" numLanes="1" speed="5.56" shape="6484.09,4291.62 6485.32,4282.32 6483.63,4278.09 6479.72,4275.37 6465.60,4273.96 6443.50,4273.73 6429.12,4275.41" disallow="tram rail_urban rail rail_electric rail_fast ship">
        <lane index="0">
            <param key="origId" value="1032698572"/>
        </lane>
    </edge>
    <edge id="-1032698573#0" from="9514897816" to="8237563274" priority="1" type="highway.service" numLanes="1" speed="5.56" disallow="tram rail_urban rail rail_electric rail_fast ship">
        <lane index="0">
            <param key="origId" value="1032698573"/>
        </lane>
    </edge>
    <edge id="-1032698573#1" from="9514897814" to="9514897816" priority="1" type="highway.service" numLanes="1" speed="5.56" shape="6371.32,4298.36 6394.47,4289.13 6418.26,4283.18 6429.12,4275.41" disallow="tram rail_urban rail rail_electric rail_fast ship">
        <lane index="0">
            <param key="origId" value="1032698573"/>
        </lane>
    </edge>
    <edge id="-1032698574" from="8237563274" to="9514922918" priority="1" type="highway.service" numLanes="1" speed="5.56" shape="6429.88,4253.46 6432.67,4249.76 6433.49,4244.05 6433.85,4233.99" disallow="tram rail_urban rail rail_electric rail_fast ship">
        <lane index="0">
            <param key="origId" value="1032698574"/>
        </lane>
    </edge>