<?xml version="1.0" encoding="UTF-8"?>

<!-- generated on 2022-05-18 13:11:47 by Eclipse SUMO duarouter Version 1.13.0
<configuration xmlns:xsi="http://www.w3.org/2001/XMLSchema-instance" xsi:noNamespaceSchemaLocation="http://sumo.dlr.de/xsd/duarouterConfiguration.xsd">

    <input>
        <net-file value="C:\Users\abdel\Sumo\2022-05-18-13-10-58\ec.net.xml"/>
        <route-files value="C:\Users\abdel\Sumo\2022-05-18-13-10-58\ec.motorcycle.trips.xml"/>
    </input>

    <output>
        <output-file value="C:\Users\abdel\Sumo\2022-05-18-13-10-58\ec.motorcycle.trips.xml.tmp"/>
        <write-trips value="true"/>
    </output>

    <time>
        <begin value="0"/>
        <end value="3600"/>
    </time>

    <report>
        <no-warnings value="true"/>
        <ignore-errors value="true"/>
        <no-step-log value="true"/>
    </report>

</configuration>
-->

<routes xmlns:xsi="http://www.w3.org/2001/XMLSchema-instance" xsi:noNamespaceSchemaLocation="http://sumo.dlr.de/xsd/routes_file.xsd">
    <vType id="moto_motorcycle" vClass="motorcycle"/>
    <trip id="moto0" type="moto_motorcycle" depart="0.00" departLane="best" departSpeed="max" from="-856908280" to="-483796489#0"/>
    <trip id="moto1" type="moto_motorcycle" depart="2.68" departLane="best" from="658311123#0" to="-255416142#5"/>
    <trip id="moto2" type="moto_motorcycle" depart="5.35" departLane="best" from="156148404#1" to="-156148407#2"/>
    <trip id="moto4" type="moto_motorcycle" depart="10.71" departLane="best" departSpeed="max" from="1036079538" to="-665451328#7"/>
    <trip id="moto5" type="moto_motorcycle" depart="13.39" departLane="best" from="479621774#2" to="1042449170"/>
    <trip id="moto7" type="moto_motorcycle" depart="18.74" departLane="best" from="-248698668#6" to="-178774191#3"/>
    <trip id="moto8" type="moto_motorcycle" depart="21.42" departLane="best" from="491631422#1" to="156148401#4"/>
    <trip id="moto9" type="moto_motorcycle" depart="24.10" departLane="best" from="994962124#3" to="245763347#1"/>
    <trip id="moto10" type="moto_motorcycle" depart="26.77" departLane="best" from="159455874#5" to="773159597#1"/>
    <trip id="moto11" type="moto_motorcycle" depart="29.45" departLane="best" from="684128579#1" to="623891510"/>
    <trip id="moto13" type="moto_motorcycle" depart="34.81" departLane="best" from="-1036075647" to="742718533"/>
    <trip id="moto14" type="moto_motorcycle" depart="37.48" departLane="best" from="1036060566" to="-216060954#0"/>
    <trip id="moto15" type="moto_motorcycle" depart="40.16" departLane="best" from="625413768#0" to="765449928"/>
    <trip id="moto16" type="moto_motorcycle" depart="42.84" departLane="best" departSpeed="max" from="-248698664#2" to="178774210#0"/>
    <trip id="moto17" type="moto_motorcycle" depart="45.52" departLane="best" from="159453447#12" to="235424953"/>
    <trip id="moto18" type="moto_motorcycle" depart="48.19" departLane="best" from="-486831710#1" to="-483726628#1"/>
    <trip id="moto19" type="moto_motorcycle" depart="50.87" departLane="best" from="-216065938#3" to="475319368#1"/>
    <trip id="moto21" type="moto_motorcycle" depart="56.23" departLane="best" from="-479797318#3" to="159453449#6"/>
    <trip id="moto22" type="moto_motorcycle" depart="58.90" departLane="best" from="622873931#1" to="-479797239#3"/>
    <trip id="moto23" type="moto_motorcycle" depart="61.58" departLane="best" from="1042698681#1" to="-216060954#2"/>
    <trip id="moto24" type="moto_motorcycle" depart="64.26" departLane="best" from="255416174" to="480282283#1"/>
    <trip id="moto25" type="moto_motorcycle" depart="66.94" departLane="best" from="-479621745#7" to="775122578#1"/>
    <trip id="moto26" type="moto_motorcycle" depart="69.61" departLane="best" from="321071862#2" to="479797253#1"/>
    <trip id="moto27" type="moto_motorcycle" depart="72.29" departLane="best" from="321071862#1" to="390383583#4"/>
    <trip id="moto28" type="moto_motorcycle" depart="74.97" departLane="best" from="248698659" to="742718538#7"/>
    <trip id="moto29" type="moto_motorcycle" depart="77.65" departLane="best" departSpeed="max" from="-480250299#1" to="479797348#1"/>
    <trip id="moto30" type="moto_motorcycle" depart="80.32" departLane="best" from="994962125" to="994962124#3"/>
    <trip id="moto31" type="moto_motorcycle" depart="83.00" departLane="best" from="625413783#1" to="625413768#2"/>
    <trip id="moto34" type="moto_motorcycle" depart="91.03" departLane="best" from="-255416245#2" to="255416215#0"/>
    <trip id="moto35" type="moto_motorcycle" depart="93.71" departLane="best" from="178774226#0" to="665451331#1"/>
    <trip id="moto38" type="moto_motorcycle" depart="101.74" departLane="best" from="491638583#8" to="623474397#3"/>
    <trip id="moto40" type="moto_motorcycle" depart="107.10" departLane="best" from="255416142#3" to="479812135#1"/>
    <trip id="moto42" type="moto_motorcycle" depart="112.45" departLane="best" from="1036065182" to="1046628053"/>
    <trip id="moto43" type="moto_motorcycle" depart="115.13" departLane="best" from="1032987570#2" to="255416142#6"/>
    <trip id="moto44" type="moto_motorcycle" depart="117.81" departLane="best" from="178774189#7" to="665451328#9"/>
    <trip id="moto45" type="moto_motorcycle" depart="120.49" departLane="best" from="491631423" to="-479797258#4"/>
    <trip id="moto46" type="moto_motorcycle" depart="123.16" departLane="best" departSpeed="max" from="-480250292" to="-1040591002#1"/>
    <trip id="moto48" type="moto_motorcycle" depart="128.52" departLane="best" from="-479797279" to="773876919#4"/>
    <trip id="moto49" type="moto_motorcycle" depart="131.20" departLane="best" from="235428254#1" to="-178774197#1"/>
    <trip id="moto51" type="moto_motorcycle" depart="136.55" departLane="best" from="-61163715#8" to="479613101#7"/>
    <trip id="moto52" type="moto_motorcycle" depart="139.23" departLane="best" from="483796485#1" to="235424974#0"/>
    <trip id="moto53" type="moto_motorcycle" depart="141.91" departLane="best" from="255416142#7" to="-475316658#0"/>
    <trip id="moto54" type="moto_motorcycle" depart="144.58" departLane="best" from="479797327#1" to="-216065940#0"/>
    <trip id="moto55" type="moto_motorcycle" depart="147.26" departLane="best" from="156148432#1" to="-156148407#0"/>
    <trip id="moto56" type="moto_motorcycle" depart="149.94" departLane="best" from="1042728028#0" to="-479797237#1"/>
    <trip id="moto57" type="moto_motorcycle" depart="152.62" departLane="best" from="-1040603778" to="479621743#1"/>
    <trip id="moto59" type="moto_motorcycle" depart="157.97" departLane="best" from="996026062#1" to="1039158527"/>
    <trip id="moto61" type="moto_motorcycle" depart="163.33" departLane="best" from="-320758121" to="479797237#0"/>
    <trip id="moto63" type="moto_motorcycle" depart="168.68" departLane="best" from="-255416251#1" to="-1041511476#1"/>
    <trip id="moto65" type="moto_motorcycle" depart="174.04" departLane="best" from="490213894" to="1038324580"/>
    <trip id="moto66" type="moto_motorcycle" depart="176.71" departLane="best" from="224737854#1" to="1036360486#0"/>
    <trip id="moto67" type="moto_motorcycle" depart="179.39" departLane="best" from="166563426#2" to="321073948"/>
    <trip id="moto68" type="moto_motorcycle" depart="182.07" departLane="best" from="622873931#8" to="-479797311#1"/>
    <trip id="moto69" type="moto_motorcycle" depart="184.75" departLane="best" from="479797318#0" to="100646202"/>
    <trip id="moto70" type="moto_motorcycle" depart="187.42" departLane="best" from="216052375#1" to="491631422#3"/>
    <trip id="moto71" type="moto_motorcycle" depart="190.10" departLane="best" departSpeed="max" from="-248698670#2" to="-483796485#1"/>
    <trip id="moto73" type="moto_motorcycle" depart="195.46" departLane="best" from="-622805764#1" to="-320758121"/>
    <trip id="moto74" type="moto_motorcycle" depart="198.13" departLane="best" from="-479816717#1" to="-489629072#0"/>
    <trip id="moto75" type="moto_motorcycle" depart="200.81" departLane="best" from="248698673#1" to="-994962121#0"/>
    <trip id="moto76" type="moto_motorcycle" depart="203.49" departLane="best" from="994962121#3" to="-320758116#0"/>
    <trip id="moto77" type="moto_motorcycle" depart="206.17" departLane="best" from="479751369#8" to="-479621763#10"/>
    <trip id="moto78" type="moto_motorcycle" depart="208.84" departLane="best" from="-100646220#2" to="159453450#2"/>
    <trip id="moto79" type="moto_motorcycle" depart="211.52" departLane="best" from="479797300#5" to="479797311#0"/>
    <trip id="moto81" type="moto_motorcycle" depart="216.88" departLane="best" from="618368878#1" to="25934381#0"/>
    <trip id="moto82" type="moto_motorcycle" depart="219.55" departLane="best" from="765467139" to="996026062#0"/>
    <trip id="moto83" type="moto_motorcycle" depart="222.23" departLane="best" from="216060954#1" to="-255416209#0"/>
    <trip id="moto84" type="moto_motorcycle" depart="224.91" departLane="best" from="479797253#0" to="622888968"/>
    <trip id="moto85" type="moto_motorcycle" depart="227.59" departLane="best" from="1036341350#5" to="854000998#0"/>
    <trip id="moto87" type="moto_motorcycle" depart="232.94" departLane="best" from="100646243" to="1032987574"/>
    <trip id="moto88" type="moto_motorcycle" depart="235.62" departLane="best" from="-479797311#8" to="479797310#3"/>
    <trip id="moto89" type="moto_motorcycle" depart="238.30" departLane="best" from="320758127#3" to="623891504#5"/>
    <trip id="moto90" type="moto_motorcycle" depart="240.97" departLane="best" from="-216065932" to="475319368#1"/>
    <trip id="moto91" type="moto_motorcycle" depart="243.65" departLane="best" from="479797310#7" to="665451330#3"/>
    <trip id="moto93" type="moto_motorcycle" depart="249.01" departLane="best" departSpeed="max" from="25934385#0" to="25934378#5"/>
    <trip id="moto94" type="moto_motorcycle" depart="251.68" departLane="best" departSpeed="max" from="854052892" to="479621763#8"/>
    <trip id="moto95" type="moto_motorcycle" depart="254.36" departLane="best" from="216065938#2" to="665451330#5"/>
    <trip id="moto96" type="moto_motorcycle" depart="257.04" departLane="best" from="1032368301#1" to="480282281#1"/>
    <trip id="moto97" type="moto_motorcycle" depart="259.72" departLane="best" from="61163785#1" to="-623891515#2"/>
    <trip id="moto98" type="moto_motorcycle" depart="262.39" departLane="best" from="538068337#1" to="480282279#1"/>
    <trip id="moto100" type="moto_motorcycle" depart="267.75" departLane="best" from="159455874#7" to="479797247"/>
    <trip id="moto101" type="moto_motorcycle" depart="270.43" departLane="best" from="773159596#1" to="-156148422#4"/>
    <trip id="moto104" type="moto_motorcycle" depart="278.46" departLane="best" from="-100646220#3" to="622895114"/>
    <trip id="moto105" type="moto_motorcycle" depart="281.14" departLane="best" from="480284570" to="178774189#4"/>
    <trip id="moto106" type="moto_motorcycle" depart="283.81" departLane="best" departSpeed="max" from="490165001#0" to="224737854#0"/>
    <trip id="moto108" type="moto_motorcycle" depart="289.17" departLane="best" from="479797318#2" to="622873934#2"/>
    <trip id="moto109" type="moto_motorcycle" depart="291.85" departLane="best" from="156148419#0" to="479751374#0"/>
    <trip id="moto111" type="moto_motorcycle" depart="297.20" departLane="best" from="479751367#0" to="-486831708#0"/>
    <trip id="moto112" type="moto_motorcycle" depart="299.88" departLane="best" from="25934395#2" to="538068339#2"/>
    <trip id="moto113" type="moto_motorcycle" depart="302.56" departLane="best" departSpeed="max" from="479621751#0" to="-1042254212#0"/>
    <trip id="moto114" type="moto_motorcycle" depart="305.23" departLane="best" from="1042698681#0" to="-475319375"/>
    <trip id="moto115" type="moto_motorcycle" depart="307.91" departLane="best" from="480284571#0" to="-480284576#4"/>
    <trip id="moto116" type="moto_motorcycle" depart="310.59" departLane="best" from="-248698663#5" to="-178774212#1"/>
    <trip id="moto117" type="moto_motorcycle" depart="313.27" departLane="best" from="-479621745#7" to="379986778#1"/>
    <trip id="moto118" type="moto_motorcycle" depart="315.94" departLane="best" from="479797258#5" to="-775380332#4"/>
    <trip id="moto119" type="moto_motorcycle" depart="318.62" departLane="best" from="159453448#1" to="-775599627#0"/>
    <trip id="moto120" type="moto_motorcycle" depart="321.30" departLane="best" from="479797321" to="216065930#0"/>
    <trip id="moto121" type="moto_motorcycle" depart="323.98" departLane="best" from="618364857#1" to="538068337#1"/>
    <trip id="moto123" type="moto_motorcycle" depart="329.33" departLane="best" from="-479751866#0" to="224737852#0"/>
    <trip id="moto124" type="moto_motorcycle" depart="332.01" departLane="best" from="480475790#1" to="481854585"/>
    <trip id="moto125" type="moto_motorcycle" depart="334.69" departLane="best" from="224737854#3" to="159455882"/>
    <trip id="moto126" type="moto_motorcycle" depart="337.36" departLane="best" from="1038108478" to="479797344"/>
    <trip id="moto127" type="moto_motorcycle" depart="340.04" departLane="best" from="224737852#4" to="-479797283#5"/>
    <trip id="moto128" type="moto_motorcycle" depart="342.72" departLane="best" from="665453547" to="623891515#2"/>
    <trip id="moto129" type="moto_motorcycle" depart="345.40" departLane="best" from="1041286368" to="491631422#1"/>
    <trip id="moto130" type="moto_motorcycle" depart="348.07" departLane="best" from="61163715#6" to="480250304"/>
    <trip id="moto131" type="moto_motorcycle" depart="350.75" departLane="best" from="1040591006#6" to="1040591006#7"/>
    <trip id="moto132" type="moto_motorcycle" depart="353.43" departLane="best" from="-156148430#1" to="1036342983"/>
    <trip id="moto133" type="moto_motorcycle" depart="356.11" departLane="best" from="1041286368" to="-479621774#2"/>
    <trip id="moto134" type="moto_motorcycle" depart="358.78" departLane="best" from="538068339#6" to="-479797239#1"/>
    <trip id="moto135" type="moto_motorcycle" depart="361.46" departLane="best" from="159453447#11" to="123423117#1"/>
    <trip id="moto136" type="moto_motorcycle" depart="364.14" departLane="best" from="248698672#2" to="1036065182"/>
    <trip id="moto137" type="moto_motorcycle" depart="366.82" departLane="best" from="765467133" to="854052897#5"/>
    <trip id="moto138" type="moto_motorcycle" depart="369.49" departLane="best" from="159457858#1" to="100646245#3"/>
    <trip id="moto139" type="moto_motorcycle" depart="372.17" departLane="best" from="481854599#2" to="-775380332#6"/>
    <trip id="moto141" type="moto_motorcycle" depart="377.53" departLane="best" from="159453471#1" to="-100646245#1"/>
    <trip id="moto142" type="moto_motorcycle" depart="380.20" departLane="best" from="156148402#0" to="491631422#5"/>
    <trip id="moto143" type="moto_motorcycle" depart="382.88" departLane="best" from="665453543" to="320758139"/>
    <trip id="moto144" type="moto_motorcycle" depart="385.56" departLane="best" from="156148420" to="379986745"/>
    <trip id="moto145" type="moto_motorcycle" depart="388.24" departLane="best" from="479613108#2" to="854052895#1"/>
    <trip id="moto146" type="moto_motorcycle" depart="390.91" departLane="best" from="479613101#1" to="538068607#1"/>
    <trip id="moto147" type="moto_motorcycle" depart="393.59" departLane="best" from="159455875#5" to="1032670006"/>
    <trip id="moto148" type="moto_motorcycle" depart="396.27" departLane="best" from="658620773#1" to="1041542914#1"/>
    <trip id="moto149" type="moto_motorcycle" depart="398.95" departLane="best" from="216065940#1" to="742718528#0"/>
    <trip id="moto150" type="moto_motorcycle" depart="401.62" departLane="best" from="1036058417#1" to="321073225#2"/>
    <trip id="moto151" type="moto_motorcycle" depart="404.30" departLane="best" from="994962125" to="-994962121#1"/>
    <trip id="moto152" type="moto_motorcycle" depart="406.98" departLane="best" from="1040882900" to="491638583#6"/>
    <trip id="moto153" type="moto_motorcycle" depart="409.66" departLane="best" from="-658095569#1" to="-658095569#0"/>
    <trip id="moto154" type="moto_motorcycle" depart="412.33" departLane="best" from="622805764#1" to="1036099957"/>
    <trip id="moto155" type="moto_motorcycle" depart="415.01" departLane="best" from="622873934#0" to="479797327#5"/>
    <trip id="moto156" type="moto_motorcycle" depart="417.69" departLane="best" from="491631422#4" to="224737849#3"/>
    <trip id="moto157" type="moto_motorcycle" depart="420.37" departLane="best" from="-248698665#0" to="1036065182"/>
    <trip id="moto158" type="moto_motorcycle" depart="423.04" departLane="best" from="248698663#5" to="483796488#0"/>
    <trip id="moto159" type="moto_motorcycle" depart="425.72" departLane="best" from="159453472#3" to="479797268"/>
    <trip id="moto160" type="moto_motorcycle" depart="428.40" departLane="best" from="1038266651" to="742727481"/>
    <trip id="moto161" type="moto_motorcycle" depart="431.08" departLane="best" from="224737850#2" to="-479797258#2"/>
    <trip id="moto164" type="moto_motorcycle" depart="439.11" departLane="best" from="1041535947" to="379986746#0"/>
    <trip id="moto165" type="moto_motorcycle" depart="441.79" departLane="best" from="156148422#3" to="625413783#2"/>
    <trip id="moto168" type="moto_motorcycle" depart="449.82" departLane="best" from="475319377" to="47070283#0"/>
    <trip id="moto169" type="moto_motorcycle" depart="452.50" departLane="best" from="-1036048550" to="1036077823"/>
    <trip id="moto170" type="moto_motorcycle" depart="455.17" departLane="best" from="-475316645#1" to="-480282281#1"/>
    <trip id="moto171" type="moto_motorcycle" depart="457.85" departLane="best" from="1036341353#0" to="479751369#2"/>
    <trip id="moto172" type="moto_motorcycle" depart="460.53" departLane="best" from="248698663#4" to="1036077823"/>
    <trip id="moto174" type="moto_motorcycle" depart="465.88" departLane="best" from="100646264#1" to="100646269#0"/>
    <trip id="moto175" type="moto_motorcycle" depart="468.56" departLane="best" from="159453448#2" to="-623891515#1"/>
    <trip id="moto176" type="moto_motorcycle" depart="471.24" departLane="best" from="255416142#3" to="742718538#2"/>
    <trip id="moto178" type="moto_motorcycle" depart="476.59" departLane="best" from="-538068339#5" to="479797237#1"/>
    <trip id="moto180" type="moto_motorcycle" depart="481.95" departLane="best" from="486831710#0" to="-100646245#1"/>
    <trip id="moto181" type="moto_motorcycle" depart="484.63" departLane="best" from="255416227" to="742718533"/>
    <trip id="moto182" type="moto_motorcycle" depart="487.30" departLane="best" from="100646248#1" to="901285518"/>
    <trip id="moto183" type="moto_motorcycle" depart="489.98" departLane="best" departSpeed="max" from="480453048" to="773159597#2"/>
    <trip id="moto184" type="moto_motorcycle" depart="492.66" departLane="best" from="-100646260#3" to="479621758#5"/>
    <trip id="moto185" type="moto_motorcycle" depart="495.34" departLane="best" from="1036076520#0" to="-320755658#2"/>
    <trip id="moto186" type="moto_motorcycle" depart="498.01" departLane="best" from="480284574" to="321073246#0"/>
    <trip id="moto187" type="moto_motorcycle" depart="500.69" departLane="best" from="178774189#17" to="248698668#12"/>
    <trip id="moto188" type="moto_motorcycle" depart="503.37" departLane="best" from="625351512" to="-248698668#4"/>
    <trip id="moto189" type="moto_motorcycle" depart="506.05" departLane="best" from="235424974#0" to="159455874#2"/>
    <trip id="moto190" type="moto_motorcycle" depart="508.72" departLane="best" from="623891511" to="665453544"/>
    <trip id="moto191" type="moto_motorcycle" depart="511.40" departLane="best" from="479621763#7" to="1038869523"/>
    <trip id="moto192" type="moto_motorcycle" depart="514.08" departLane="best" from="-1032987569#1" to="-480282280"/>
    <trip id="moto193" type="moto_motorcycle" depart="516.76" departLane="best" from="321073225#5" to="479797245"/>
    <trip id="moto194" type="moto_motorcycle" depart="519.43" departLane="best" from="625413781#1" to="684128578#1"/>
    <trip id="moto195" type="moto_motorcycle" depart="522.11" departLane="best" from="490216937#0-AddedOffRampEdge" to="1036099956#2"/>
    <trip id="moto197" type="moto_motorcycle" depart="527.47" departLane="best" from="479816723#3" to="-479816722#1"/>
    <trip id="moto198" type="moto_motorcycle" depart="530.14" departLane="best" from="1036341363#1" to="773876912#2"/>
    <trip id="moto201" type="moto_motorcycle" depart="538.18" departLane="best" from="1041504065" to="618364857#1"/>
    <trip id="moto202" type="moto_motorcycle" depart="540.85" departLane="best" from="61163710#11" to="850152437"/>
    <trip id="moto203" type="moto_motorcycle" depart="543.53" departLane="best" from="-479751866#0" to="491631422#8"/>
    <trip id="moto204" type="moto_motorcycle" depart="546.21" departLane="best" from="178774226#0" to="696730624"/>
    <trip id="moto206" type="moto_motorcycle" depart="551.56" departLane="best" from="178774212#3" to="178774214"/>
    <trip id="moto207" type="moto_motorcycle" depart="554.24" departLane="best" departSpeed="max" from="-856908280" to="854038215#1"/>
    <trip id="moto208" type="moto_motorcycle" depart="556.92" departLane="best" from="684128571" to="-25934378#1"/>
    <trip id="moto209" type="moto_motorcycle" depart="559.60" departLane="best" from="994875411" to="-486831710#1"/>
    <trip id="moto210" type="moto_motorcycle" depart="562.27" departLane="best" from="479621763#8" to="622895114"/>
    <trip id="moto211" type="moto_motorcycle" depart="564.95" departLane="best" departSpeed="max" from="1041504064" to="255416209#0"/>
    <trip id="moto212" type="moto_motorcycle" depart="567.63" departLane="best" from="-479797239#2" to="216060954#4"/>
    <trip id="moto213" type="moto_motorcycle" depart="570.31" departLane="best" from="178774191#3" to="-178774191#2"/>
    <trip id="moto214" type="moto_motorcycle" depart="572.98" departLane="best" from="-538068339#0" to="618368878#0"/>
    <trip id="moto216" type="moto_motorcycle" depart="578.34" departLane="best" from="479797277#4" to="479751358#1"/>
    <trip id="moto217" type="moto_motorcycle" depart="581.02" departLane="best" from="1036341351#1" to="1041542911"/>
    <trip id="moto218" type="moto_motorcycle" depart="583.69" departLane="best" from="-248698663#5" to="665451328#9"/>
    <!--<trip id="moto219" type="moto_motorcycle" depart="586.37" departLane="best" from="1036341359#0" to="1036341362#0"/>-->
    <trip id="moto220" type="moto_motorcycle" depart="589.05" departLane="best" from="1036338535" to="765449929"/>
    <trip id="moto221" type="moto_motorcycle" depart="591.73" departLane="best" from="775380332#6" to="854000996#0"/>
    <trip id="moto222" type="moto_motorcycle" depart="594.40" departLane="best" from="216060954#0" to="25934381#1"/>
    <trip id="moto223" type="moto_motorcycle" depart="597.08" departLane="best" from="-538068339#5" to="1041235840#0"/>
    <trip id="moto224" type="moto_motorcycle" depart="599.76" departLane="best" from="773159597#2" to="159455875#5"/>
    <trip id="moto226" type="moto_motorcycle" depart="605.11" departLane="best" from="697227727" to="479797300#1"/>
    <trip id="moto227" type="moto_motorcycle" depart="607.79" departLane="best" from="-248698664#1" to="483796488#0"/>
    <trip id="moto228" type="moto_motorcycle" depart="610.47" departLane="best" from="854000992#0" to="156148418"/>
    <trip id="moto229" type="moto_motorcycle" depart="613.15" departLane="best" from="235424958#4" to="235424958#4"/>
    <trip id="moto230" type="moto_motorcycle" depart="615.82" departLane="best" from="320755658#1" to="25934381#0"/>
    <trip id="moto231" type="moto_motorcycle" depart="618.50" departLane="best" from="156148398#0" to="775122578#3"/>
    <trip id="moto232" type="moto_motorcycle" depart="621.18" departLane="best" from="178774212#3" to="178774189#3"/>
    <trip id="moto233" type="moto_motorcycle" depart="623.86" departLane="best" from="25931028#4" to="773876919#5"/>
    <trip id="moto234" type="moto_motorcycle" depart="626.53" departLane="best" from="156148426#1" to="-156148407#0"/>
    <trip id="moto235" type="moto_motorcycle" depart="629.21" departLane="best" from="-479797310#1" to="479797300#5"/>
    <trip id="moto236" type="moto_motorcycle" depart="631.89" departLane="best" from="235424958#4" to="156148397#2"/>
    <trip id="moto237" type="moto_motorcycle" depart="634.57" departLane="best" from="-479797310#8" to="479613101#0"/>
    <trip id="moto238" type="moto_motorcycle" depart="637.24" departLane="best" from="583797089#3" to="775122579#1"/>
    <trip id="moto239" type="moto_motorcycle" depart="639.92" departLane="best" departSpeed="max" from="-856908280" to="248698668#12"/>
    <trip id="moto240" type="moto_motorcycle" depart="642.60" departLane="best" from="-479751866#0" to="159455874#4"/>
    <trip id="moto241" type="moto_motorcycle" depart="645.28" departLane="best" from="583797089#7" to="156148430#2"/>
    <trip id="moto242" type="moto_motorcycle" depart="647.95" departLane="best" from="622902051#0" to="854052900"/>
    <trip id="moto243" type="moto_motorcycle" depart="650.63" departLane="best" from="480250298#2" to="480250287#5"/>
    <trip id="moto244" type="moto_motorcycle" depart="653.31" departLane="best" from="159455875#7" to="479751369#7"/>
    <trip id="moto245" type="moto_motorcycle" depart="655.99" departLane="best" from="1040260532" to="-216065938#2"/>
    <trip id="moto247" type="moto_motorcycle" depart="661.34" departLane="best" from="479621763#1" to="-479621763#4"/>
    <trip id="moto248" type="moto_motorcycle" depart="664.02" departLane="best" from="-216065938#3" to="1041521604"/>
    <trip id="moto249" type="moto_motorcycle" depart="666.70" departLane="best" from="994962121#0" to="-475321897"/>
    <trip id="moto250" type="moto_motorcycle" depart="669.37" departLane="best" from="479621763#1" to="156148432#2"/>
    <trip id="moto251" type="moto_motorcycle" depart="672.05" departLane="best" from="1041535084" to="775122578#7"/>
    <trip id="moto252" type="moto_motorcycle" depart="674.73" departLane="best" from="1036079535" to="-475319365"/>
    <trip id="moto253" type="moto_motorcycle" depart="677.41" departLane="best" from="-994962121#1" to="-248698670#0"/>
    <trip id="moto254" type="moto_motorcycle" depart="680.08" departLane="best" departSpeed="max" from="379986688#0" to="490165001#1"/>
    <trip id="moto255" type="moto_motorcycle" depart="682.76" departLane="best" from="-178774197#1" to="665451328#0"/>
    <trip id="moto256" type="moto_motorcycle" depart="685.44" departLane="best" from="-25934355#2" to="216060954#3"/>
    <trip id="moto258" type="moto_motorcycle" depart="690.79" departLane="best" from="481854599#1" to="773159597#3"/>
    <trip id="moto259" type="moto_motorcycle" depart="693.47" departLane="best" from="491628725#1" to="224737848#2"/>
    <trip id="moto260" type="moto_motorcycle" depart="696.15" departLane="best" from="475319373" to="216065930#2"/>
    <trip id="moto261" type="moto_motorcycle" depart="698.83" departLane="best" from="-248698661" to="248698668#10"/>
    <trip id="moto262" type="moto_motorcycle" depart="701.50" departLane="best" departSpeed="max" from="622809059#0" to="-216060954#0"/>
    <trip id="moto263" type="moto_motorcycle" depart="704.18" departLane="best" from="159455874#4" to="321073278#4"/>
    <trip id="moto264" type="moto_motorcycle" depart="706.86" departLane="best" from="479797327#5" to="479797311#7"/>
    <trip id="moto265" type="moto_motorcycle" depart="709.54" departLane="best" from="-479621763#3" to="773159596#2"/>
    <trip id="moto266" type="moto_motorcycle" depart="712.21" departLane="best" departSpeed="max" from="-320758139" to="490192688#3-AddedOnRampEdge"/>
    <trip id="moto267" type="moto_motorcycle" depart="714.89" departLane="best" from="-665451328#8" to="625418510"/>
    <trip id="moto269" type="moto_motorcycle" depart="720.25" departLane="best" from="224737848#3" to="25931028#4"/>
    <trip id="moto270" type="moto_motorcycle" depart="722.92" departLane="best" from="479816717#1" to="-489629072#2"/>
    <trip id="moto272" type="moto_motorcycle" depart="728.28" departLane="best" from="-754391072" to="-248698665#1"/>
    <trip id="moto273" type="moto_motorcycle" depart="730.96" departLane="best" from="665451330#1" to="-479797310#3"/>
    <trip id="moto275" type="moto_motorcycle" depart="736.31" departLane="best" from="216065930#1" to="486825027#1"/>
    <trip id="moto276" type="moto_motorcycle" depart="738.99" departLane="best" from="216060954#2" to="-216065930#0"/>
    <trip id="moto278" type="moto_motorcycle" depart="744.34" departLane="best" from="-255416142#5" to="-475316645#1"/>
    <trip id="moto279" type="moto_motorcycle" depart="747.02" departLane="best" from="-479621763#4" to="159457890#0"/>
    <trip id="moto281" type="moto_motorcycle" depart="752.38" departLane="best" from="61163719" to="854052896#2"/>
    <trip id="moto283" type="moto_motorcycle" depart="757.73" departLane="best" from="-159457890#1" to="159455875#3"/>
    <trip id="moto284" type="moto_motorcycle" depart="760.41" departLane="best" from="-479797311#1" to="100646234"/>
    <trip id="moto285" type="moto_motorcycle" depart="763.09" departLane="best" from="-480284576#3" to="658620773#0"/>
    <trip id="moto286" type="moto_motorcycle" depart="765.76" departLane="best" from="-178774202#1" to="994962124#4"/>
    <trip id="moto292" type="moto_motorcycle" depart="781.83" departLane="best" from="742727484#1" to="1042449170"/>
    <trip id="moto293" type="moto_motorcycle" depart="784.51" departLane="best" from="-255416215#0" to="1032987589#2"/>
    <trip id="moto294" type="moto_motorcycle" depart="787.18" departLane="best" from="765467137" to="491631422#1"/>
    <trip id="moto295" type="moto_motorcycle" depart="789.86" departLane="best" departSpeed="max" from="490718877#0" to="-483796489#0"/>