<?xml version="1.0" encoding="UTF-8"?>

<!-- generated on 2022-06-12 14:35:20 by Eclipse SUMO netedit Version 1.13.0
<configuration xmlns:xsi="http://www.w3.org/2001/XMLSchema-instance" xsi:noNamespaceSchemaLocation="http://sumo.dlr.de/xsd/netconvertConfiguration.xsd">

    <input>
        <sumo-net-file value="C:\Users\hamza\Desktop\ec\ec.net.xml"/>
    </input>

    <output>
        <output-file value="C:\Users\hamza\Desktop\ec\ec.net.xml"/>
        <plain-output-prefix value="C:\Users\hamza\Desktop\ec\ec"/>
        <output.street-names value="true"/>
    </output>

    <processing>
        <geometry.min-radius.fix.railways value="false"/>
        <geometry.max-grade.fix value="false"/>
        <offset.disable-normalization value="true"/>
        <lefthand value="false"/>
    </processing>

    <junctions>
        <no-internal-links value="false"/>
        <no-turnarounds value="true"/>
        <junctions.corner-detail value="5"/>
        <junctions.limit-turn-speed value="5.5"/>
        <rectangular-lane-cut value="false"/>
    </junctions>

    <pedestrian>
        <walkingareas value="true"/>
    </pedestrian>

    <report>
        <aggregate-warnings value="5"/>
    </report>

</configuration>
-->

<nodes version="1.9" xmlns:xsi="http://www.w3.org/2001/XMLSchema-instance" xsi:noNamespaceSchemaLocation="http://sumo.dlr.de/xsd/nodes_file.xsd">
    <location netOffset="-536363.18,-2795000.78" convBoundary="0.00,0.00,17504.52,7022.82" origBoundary="51.361288,25.270437,51.534993,25.334247" projParameter="+proj=utm +zone=39 +ellps=WGS84 +datum=WGS84 +units=m +no_defs"/>

    <node id="1041187875-AddedOnRampNode" x="8791.80" y="5347.83" type="priority"/>
    <node id="1041235840#1-AddedOffRampNode" x="4627.71" y="4645.25" type="priority"/>
    <node id="1163416519" x="9513.85" y="4946.23" type="priority"/>
    <node id="1163488146" x="7402.25" y="5357.25" type="priority"/>
    <node id="1163488199" x="7120.90" y="4906.29" type="right_before_left"/>
    <node id="1163488210" x="6609.37" y="4956.39" type="priority"/>
    <node id="1163488265" x="6938.84" y="5005.99" type="right_before_left"/>
    <node id="1163488297" x="7202.35" y="4783.89" type="priority"/>
    <node id="1163488333" x="7254.13" y="4964.57" type="priority"/>
    <node id="1163488503" x="6874.67" y="3539.73" type="priority">
        <param key="buffer_stop" value="true"/>
    </node>
    <node id="1163488568" x="7702.41" y="3548.91" type="priority"/>
    <node id="1163488590" x="7598.35" y="3695.87" type="priority"/>
    <node id="1163488608" x="7541.77" y="3354.89" type="priority"/>
    <node id="1163488610" x="7598.06" y="3353.32" type="priority"/>
    <node id="1163488611" x="7750.13" y="3350.49" type="priority"/>
    <node id="1163488622" x="7676.48" y="3496.42" type="priority"/>
    <node id="1163488625" x="7676.78" y="3434.58" type="priority"/>
    <node id="1163488627" x="7842.85" y="3479.50" type="priority"/>
    <node id="1163488634" x="7958.54" y="3488.99" type="priority"/>
    <node id="1163488636" x="8046.47" y="3549.72" type="priority"/>
    <node id="1163488639" x="7754.02" y="3433.62" type="priority"/>
    <node id="1163488641" x="7836.51" y="3433.33" type="priority"/>
    <node id="1163488647" x="7747.82" y="3301.16" type="priority"/>
    <node id="1163488660" x="8037.68" y="3570.11" type="priority"/>
    <node id="1163488791" x="8681.17" y="3897.70" type="priority"/>
    <node id="1376432975" x="7806.43" y="5994.76" type="dead_end"/>
    <node id="1376432976" x="8251.31" y="6005.00" type="priority"/>
    <node id="1585712329" x="8425.42" y="3662.22" type="priority"/>
    <node id="1585712573" x="7552.78" y="3726.48" type="priority"/>
    <node id="1585712673" x="7558.87" y="3741.48" type="priority"/>
    <node id="1585712688" x="7535.17" y="3741.13" type="priority"/>
    <node id="1585712762" x="7543.60" y="3749.38" type="priority"/>
    <node id="1585712841" x="9271.76" y="3756.03" type="dead_end"/>
    <node id="1585712871" x="7583.01" y="3740.41" type="priority"/>
    <node id="1585712957" x="7687.17" y="3827.10" type="right_before_left"/>
    <node id="1585713016" x="9023.47" y="3843.00" type="priority"/>
    <node id="1585713039" x="9037.05" y="3844.96" type="priority"/>
    <node id="1585713087" x="9041.15" y="3865.36" type="priority"/>
    <node id="1585713153" x="9021.17" y="3870.61" type="priority"/>
    <node id="1585713164" x="9036.74" y="3869.86" type="priority"/>
    <node id="1585713206" x="9373.67" y="3929.97" type="priority"/>
    <node id="1585713215" x="7371.70" y="3941.36" type="priority"/>
    <node id="1585713219" x="7340.98" y="3954.58" type="right_before_left"/>
    <node id="1585713256" x="7321.66" y="4000.65" type="priority"/>
    <node id="1589649730" x="8601.09" y="3050.41" type="dead_end"/>
    <node id="1684363052" x="7608.12" y="6078.79" type="dead_end"/>
    <node id="1684363069" x="7706.86" y="5995.13" type="dead_end"/>
    <node id="1684363070" x="8300.56" y="6068.26" type="priority"/>
    <node id="1684363074" x="8328.87" y="6069.92" type="priority"/>
    <node id="1684363078" x="8112.99" y="6010.98" type="priority"/>
    <node id="1684363082" x="8064.41" y="6216.22" type="priority"/>
    <node id="1684363093" x="8393.68" y="6060.41" type="priority"/>
    <node id="1684363095" x="8152.35" y="6073.78" type="priority"/>
    <node id="1684363099" x="7392.24" y="6066.11" type="priority"/>
    <node id="1684363104" x="7584.91" y="6011.62" type="priority"/>
    <node id="1684363114" x="7794.84" y="6054.21" type="priority"/>
    <node id="1684363117" x="7938.16" y="6052.82" type="priority"/>
    <node id="1684363125" x="8257.42" y="6066.23" type="priority"/>
    <node id="1684363132" x="7797.50" y="5994.60" type="dead_end"/>
    <node id="1684363140" x="7371.85" y="6046.02" type="priority"/>
    <node id="1684363144" x="7850.09" y="6215.44" type="priority"/>
    <node id="1684363145" x="7799.46" y="6018.08" type="priority"/>
    <node id="1684363148" x="7553.29" y="6056.37" type="priority"/>
    <node id="1684363150" x="7430.93" y="6017.56" type="priority"/>
    <node id="1684363151" x="7969.85" y="6215.71" type="priority"/>
    <node id="1684363153" x="7820.51" y="6182.76" type="priority">
        <param key="buffer_stop" value="true"/>
    </node>
    <node id="1684363157" x="8162.88" y="6068.10" type="priority"/>
    <node id="1684363158" x="7765.39" y="6040.80" type="priority"/>
    <node id="1684363159" x="7706.79" y="6079.11" type="dead_end"/>
    <node id="1684363165" x="8271.76" y="6056.46" type="priority"/>
    <node id="1684363172" x="7473.60" y="5856.16" type="priority"/>
    <node id="1684363175" x="7550.09" y="6031.92" type="priority"/>
    <node id="1684363178" x="7615.47" y="6009.17" type="priority"/>
    <node id="1684363179" x="7606.10" y="6009.49" type="priority"/>
    <node id="1684363180" x="7706.37" y="6010.04" type="priority"/>
    <node id="1684363183" x="8161.94" y="6007.26" type="priority"/>
    <node id="1684363186" x="8042.29" y="6015.12" type="priority"/>
    <node id="1684363195" x="7608.21" y="5994.88" type="dead_end"/>
    <node id="1684363197" x="7420.65" y="6062.79" type="priority"/>
    <node id="1684363199" x="8124.55" y="6072.81" type="priority"/>
    <node id="1684363206" x="7939.88" y="6019.85" type="priority"/>
    <node id="1684363230" x="8387.64" y="5998.54" type="priority"/>
    <node id="1684363238" x="7897.31" y="6013.21" type="priority"/>
    <node id="1684363239" x="7428.64" y="6055.73" type="priority"/>
    <node id="1684363240" x="7471.60" y="6021.92" type="priority"/>
    <node id="1684363243" x="7793.52" y="6009.88" type="priority"/>
    <node id="1684363246" x="8116.79" y="6068.32" type="priority"/>
    <node id="1684363247" x="7505.08" y="6052.38" type="priority"/>
    <node id="1684363249" x="7505.84" y="6018.80" type="priority"/>
    <node id="1684363250" x="8476.60" y="6058.24" type="priority"/>
    <node id="1684363252" x="7728.22" y="6011.65" type="priority"/>
    <node id="1684363253" x="7549.96" y="6040.71" type="priority"/>
    <node id="1684363259" x="7972.89" y="5857.64" type="priority"/>
    <node id="1684363260" x="8301.64" y="6055.77" type="priority"/>
    <node id="1684363263" x="8318.33" y="6002.07" type="priority"/>
    <node id="1684363265" x="8033.71" y="6057.55" type="priority"/>
    <node id="1684363267" x="7807.02" y="6010.66" type="priority"/>
    <node id="1684363269" x="8355.08" y="6058.45" type="priority"/>
    <node id="1684363270" x="7970.87" y="6061.61" type="priority"/>
    <node id="1684363284" x="7430.78" y="5855.86" type="priority"/>
    <node id="1684363289" x="7849.58" y="6160.80" type="priority">
        <param key="buffer_stop" value="true"/>
    </node>
    <node id="1684363290" x="8565.27" y="6041.04" type="priority"/>
    <node id="1684363291" x="8085.02" y="5855.94" type="priority"/>
    <node id="1684363293" x="7849.78" y="6182.90" type="right_before_left"/>
    <node id="1715698205" x="7984.87" y="4743.17" type="priority"/>
    <node id="1715698208" x="7989.50" y="4747.88" type="priority"/>
    <node id="1715698210" x="7954.65" y="4748.78" type="priority"/>
    <node id="1715698221" x="7550.78" y="4803.12" type="priority"/>
    <node id="1715698236" x="8013.70" y="4760.34" type="priority"/>
    <node id="1715698239" x="7991.95" y="4767.36" type="priority"/>
    <node id="1715698244" x="7959.98" y="4776.72" type="priority"/>
    <node id="1715698248" x="7983.60" y="4777.50" type="priority"/>
    <node id="1715698261" x="7555.40" y="4837.54" type="right_before_left"/>
    <node id="1715698262" x="7604.12" y="4837.88" type="right_before_left"/>
    <node id="1715698263" x="7547.18" y="4860.17" type="right_before_left"/>
    <node id="1715698264" x="7604.04" y="4860.76" type="right_before_left"/>
    <node id="1715698266" x="7603.97" y="4882.51" type="right_before_left"/>
    <node id="1715698270" x="7551.59" y="4905.42" type="priority"/>
    <node id="1715698271" x="7603.90" y="4904.26" type="right_before_left"/>
    <node id="1715698276" x="7961.23" y="4932.02" type="priority"/>
    <node id="1715698279" x="7518.87" y="4948.08" type="right_before_left"/>
    <node id="1715698280" x="7603.76" y="4948.36" type="right_before_left"/>
    <node id="1715698281" x="7518.85" y="4969.87" type="right_before_left"/>
    <node id="1715698282" x="7603.68" y="4970.15" type="right_before_left"/>
    <node id="1715698283" x="7961.71" y="4982.90" type="priority"/>
    <node id="1715698284" x="7982.15" y="4982.43" type="priority"/>
    <node id="1715698285" x="7518.85" y="4993.71" type="right_before_left"/>
    <node id="1715698286" x="7603.61" y="4993.99" type="right_before_left"/>
    <node id="1715698287" x="7518.84" y="5015.27" type="priority"/>
    <node id="1715698293" x="7981.83" y="5041.79" type="priority"/>
    <node id="1715698297" x="8016.74" y="5170.98" type="dead_end"/>
    <node id="1715698300" x="7982.49" y="5159.54" type="priority"/>
    <node id="1715698307" x="7976.39" y="5338.55" type="priority"/>
    <node id="1715698321" x="7951.72" y="5335.49" type="priority"/>
    <node id="1715698326" x="7913.96" y="5354.56" type="priority"/>
    <node id="1715726508" x="7512.11" y="4618.59" type="priority"/>
    <node id="1715726512" x="7425.00" y="4630.12" type="right_before_left"/>
    <node id="1715726525" x="7480.49" y="4700.06" type="right_before_left"/>
    <node id="1715726534" x="7394.46" y="4710.27" type="right_before_left"/>
    <node id="1715726538" x="7367.39" y="4720.70" type="right_before_left"/>
    <node id="1715726540" x="7554.19" y="4727.85" type="priority">
        <param key="buffer_stop" value="true"/>
    </node>
    <node id="1715726541" x="7387.44" y="4728.25" type="right_before_left"/>
    <node id="1715726542" x="7459.40" y="4755.38" type="right_before_left"/>
    <node id="1715726544" x="7527.01" y="4780.89" type="priority"/>
    <node id="1715726552" x="7912.60" y="4807.95" type="priority"/>
    <node id="1715726572" x="7332.34" y="4812.69" type="right_before_left"/>
    <node id="1715726598" x="7425.17" y="4869.48" type="priority"/>
    <node id="1715726601" x="7526.84" y="4858.90" type="priority"/>
    <node id="1715726604" x="7483.92" y="4869.82" type="priority">
        <param key="buffer_stop" value="true"/>
    </node>
    <node id="1715726607" x="7466.59" y="4885.30" type="priority"/>
    <node id="1715726610" x="7499.04" y="4886.91" type="priority"/>
    <node id="1715726612" x="7503.51" y="4884.73" type="priority"/>
    <node id="1715726617" x="7526.10" y="4893.57" type="priority"/>
    <node id="1715726639" x="7490.91" y="4905.93" type="priority"/>
    <node id="1715726646" x="7491.79" y="4909.10" type="priority"/>
    <node id="1715726649" x="7516.27" y="4920.12" type="priority"/>
    <node id="1715726673" x="7490.83" y="4940.74" type="priority"/>
    <node id="1715726676" x="7719.30" y="4955.57" type="priority"/>
    <node id="1715726677" x="7961.02" y="4959.92" type="priority"/>
    <node id="1715726717" x="7435.75" y="5069.56" type="priority"/>
    <node id="1715726738" x="7424.26" y="5092.24" type="priority"/>
    <node id="1715726785" x="7424.80" y="5135.75" type="priority"/>
    <node id="1715726791" x="7982.82" y="5146.21" type="priority"/>
    <node id="1715726810" x="7428.80" y="5142.27" type="priority"/>
    <node id="1715726830" x="7378.46" y="5155.41" type="priority"/>
    <node id="1715726870" x="7426.71" y="5166.65" type="priority"/>
    <node id="1715726874" x="7411.50" y="5177.73" type="priority"/>
    <node id="1715726901" x="7435.16" y="5187.81" type="priority"/>
    <node id="1715726937" x="7523.65" y="5322.91" type="priority"/>
    <node id="1715726964" x="7634.02" y="5342.42" type="dead_end"/>
    <node id="1715726974" x="7633.55" y="5361.77" type="dead_end"/>
    <node id="1715785907" x="7746.56" y="4603.92" type="priority"/>
    <node id="1715785908" x="7807.34" y="4604.53" type="priority"/>
    <node id="1715785910" x="7900.50" y="4604.97" type="priority"/>
    <node id="1715785925" x="7951.40" y="4617.78" type="right_before_left"/>
    <node id="1715785929" x="7900.49" y="4617.73" type="right_before_left"/>
    <node id="1715785931" x="7869.38" y="4617.69" type="right_before_left"/>
    <node id="1715785932" x="7847.44" y="4617.67" type="right_before_left"/>
    <node id="1715785934" x="7826.71" y="4617.65" type="right_before_left"/>
    <node id="1715785935" x="7805.97" y="4617.63" type="right_before_left"/>
    <node id="1715785937" x="7784.65" y="4617.60" type="right_before_left"/>
    <node id="1715785944" x="7930.56" y="4692.78" type="right_before_left"/>
    <node id="1715785953" x="7869.30" y="4692.69" type="right_before_left"/>
    <node id="1715785954" x="7847.36" y="4692.68" type="right_before_left"/>
    <node id="1715785955" x="7826.64" y="4692.65" type="right_before_left"/>
    <node id="1715785956" x="7805.90" y="4692.63" type="right_before_left"/>
    <node id="1715785957" x="7784.56" y="4692.60" type="right_before_left"/>
    <node id="1715785958" x="7765.22" y="4692.58" type="right_before_left"/>
    <node id="1715785969" x="7738.65" y="4748.92" type="priority"/>
    <node id="1715785970" x="7739.50" y="4759.22" type="priority"/>
    <node id="1715785972" x="7627.67" y="4757.93" type="priority"/>
    <node id="1715785976" x="7695.04" y="4758.79" type="priority"/>
    <node id="1715785983" x="7694.74" y="4777.44" type="dead_end"/>
    <node id="1715785984" x="7622.73" y="4773.18" type="dead_end"/>
    <node id="1715785985" x="7640.85" y="4787.23" type="dead_end"/>
    <node id="1715785987" x="7622.70" y="4790.63" type="dead_end"/>
    <node id="1715785991" x="7679.82" y="4813.35" type="dead_end"/>
    <node id="1715786001" x="7642.62" y="4851.87" type="dead_end"/>
    <node id="1715786004" x="7622.56" y="4870.65" type="dead_end"/>
    <node id="1715786010" x="7650.79" y="4905.47" type="dead_end"/>
    <node id="1715786070" x="7673.91" y="4943.27" type="dead_end"/>
    <node id="1715786152" x="7668.22" y="4986.78" type="dead_end"/>
    <node id="1715786176" x="7355.42" y="5008.04" type="dead_end"/>
    <node id="1715786200" x="7324.16" y="5038.34" type="dead_end"/>
    <node id="1715786208" x="7735.02" y="5058.44" type="dead_end"/>
    <node id="1715786209" x="7694.26" y="5055.17" type="priority"/>
    <node id="1715786219" x="7636.79" y="5092.33" type="dead_end"/>
    <node id="1715786221" x="7636.77" y="5105.85" type="dead_end"/>
    <node id="1715786222" x="7680.06" y="5134.94" type="dead_end"/>
    <node id="1715786224" x="7680.03" y="5148.46" type="dead_end"/>
    <node id="1715786225" x="7636.67" y="5161.63" type="dead_end"/>
    <node id="1715786234" x="7662.65" y="5211.28" type="dead_end"/>
    <node id="1715786235" x="7636.55" y="5231.15" type="dead_end"/>
    <node id="1715786237" x="7679.88" y="5235.93" type="dead_end"/>
    <node id="1715786239" x="7679.84" y="5260.66" type="dead_end"/>
    <node id="1715786240" x="7679.82" y="5272.70" type="dead_end"/>
    <node id="1715786241" x="7636.42" y="5302.57" type="dead_end"/>
    <node id="1715786246" x="7621.75" y="5330.30" type="dead_end"/>
    <node id="1715786249" x="7652.47" y="5333.69" type="dead_end"/>
    <node id="1715786252" x="7693.43" y="5352.44" type="priority"/>
    <node id="1769195874" x="9453.90" y="5432.06" type="dead_end"/>
    <node id="1779788803" x="6970.58" y="4979.05" type="right_before_left"/>
    <node id="1779788834" x="6631.56" y="5000.63" type="right_before_left"/>
    <node id="1779788895" x="6674.22" y="5019.47" type="right_before_left"/>
    <node id="1779788943" x="6669.37" y="5031.21" type="right_before_left"/>
    <node id="1779788981" x="6744.60" y="5046.06" type="right_before_left"/>
    <node id="1779788992" x="6739.25" y="5058.94" type="right_before_left"/>
    <node id="1779788999" x="6805.05" y="5069.52" type="right_before_left"/>
    <node id="1779789007" x="6799.94" y="5082.54" type="right_before_left"/>
    <node id="1779789039" x="6904.80" y="5103.57" type="right_before_left"/>
    <node id="1884022713" x="5581.54" y="6137.25" type="priority"/>
    <node id="1884022746" x="6453.35" y="6448.32" type="dead_end"/>
    <node id="1884022860" x="6048.67" y="6740.21" type="priority"/>
    <node id="1891356408" x="5332.00" y="5641.17" type="priority"/>
    <node id="1891356411" x="5364.57" y="5719.03" type="priority"/>
    <node id="1891356423" x="5413.78" y="5814.25" type="priority"/>
    <node id="1891356424" x="5310.93" y="5831.92" type="priority"/>
    <node id="1891356427" x="5345.15" y="5841.22" type="priority"/>
    <node id="1891356432" x="5156.64" y="5829.54" type="priority"/>
    <node id="1891356433" x="5389.92" y="5861.54" type="priority"/>
    <node id="1891356444" x="5332.01" y="5875.42" type="priority"/>
    <node id="1891356456" x="5358.14" y="5903.55" type="priority"/>
    <node id="1891356480" x="5201.79" y="5925.85" type="priority"/>
    <node id="1891356522" x="5273.31" y="5934.60" type="priority"/>
    <node id="1891356562" x="5258.31" y="5944.30" type="priority"/>
    <node id="1891356600" x="5065.09" y="5953.91" type="priority"/>
    <node id="1891356603" x="5363.79" y="5958.76" type="priority"/>
    <node id="1891356604" x="5422.79" y="5958.08" type="priority"/>
    <node id="1891356632" x="5184.70" y="5979.81" type="priority"/>
    <node id="1891356639" x="5426.98" y="5981.77" type="priority"/>
    <node id="1891356650" x="5169.42" y="5988.51" type="priority"/>
    <node id="1891356651" x="5183.74" y="5988.60" type="priority"/>
    <node id="1891356652" x="5052.42" y="5986.74" type="priority"/>
    <node id="1891356664" x="5328.47" y="5991.05" type="priority"/>
    <node id="1891356669" x="5086.79" y="5998.02" type="priority"/>
    <node id="1891356688" x="5415.08" y="6017.62" type="priority"/>
    <node id="1891356696" x="5476.79" y="6028.26" type="priority"/>
    <node id="1891356702" x="5042.50" y="6035.09" type="priority"/>
    <node id="1891356704" x="5089.17" y="6037.28" type="priority"/>
    <node id="1891356738" x="5182.04" y="6063.09" type="priority"/>
    <node id="1891356745" x="5341.04" y="6066.83" type="priority"/>
    <node id="1891356746" x="5419.97" y="6069.77" type="priority"/>
    <node id="1891356765" x="5324.74" y="6076.10" type="priority"/>
    <node id="1891356779" x="5475.30" y="6082.19" type="priority"/>
    <node id="1891356806" x="5031.51" y="6105.90" type="priority">
        <param key="buffer_stop" value="true"/>
    </node>
    <node id="1891356815" x="5251.15" y="6111.94" type="priority"/>
    <node id="1891356831" x="5234.88" y="6120.23" type="priority"/>
    <node id="1891356849" x="5100.71" y="6124.30" type="priority"/>
    <node id="1891356850" x="5454.00" y="6125.53" type="priority"/>
    <node id="1891356890" x="5113.62" y="6181.23" type="priority"/>
    <node id="1891356901" x="5139.02" y="6196.14" type="priority"/>
    <node id="1891356905" x="5165.30" y="6211.56" type="priority"/>
    <node id="1891356933" x="5442.36" y="6374.98" type="priority"/>
    <node id="2007038346" x="7656.66" y="5435.40" type="priority"/>
    <node id="2188170217" x="8881.40" y="4464.78" type="right_before_left"/>
    <node id="2188170222" x="8831.58" y="4563.78" type="priority"/>
    <node id="2254282257" x="7122.14" y="4371.96" type="priority"/>
    <node id="2254282294" x="7208.72" y="4491.55" type="right_before_left"/>
    <node id="2254282315" x="7090.89" y="4519.27" type="right_before_left"/>
    <node id="2254282319" x="7025.08" y="4523.90" type="right_before_left"/>
    <node id="2254282327" x="7084.82" y="4533.07" type="right_before_left"/>
    <node id="2254282330" x="7043.22" y="4533.43" type="priority"/>
    <node id="2254282432" x="7109.65" y="4624.23" type="right_before_left"/>
    <node id="2254282446" x="7124.68" y="4629.97" type="right_before_left"/>
    <node id="2254282497" x="7082.12" y="4643.88" type="right_before_left"/>
    <node id="2254282516" x="7116.64" y="4650.36" type="right_before_left"/>
    <node id="2254282521" x="7099.07" y="4651.60" type="right_before_left"/>
    <node id="2254282575" x="7069.58" y="4677.85" type="priority"/>
    <node id="2254282577" x="7105.07" y="4679.68" type="priority"/>
    <node id="2254282585" x="6971.66" y="4671.65" type="priority">
        <param key="buffer_stop" value="true"/>
    </node>
    <node id="2254282615" x="7066.62" y="4731.28" type="priority"/>
    <node id="2254294841" x="7043.55" y="4722.33" type="priority"/>
    <node id="2254294854" x="7049.66" y="4760.10" type="right_before_left"/>
    <node id="2254294865" x="6980.73" y="4777.92" type="right_before_left"/>
    <node id="2254294867" x="6972.72" y="4800.39" type="right_before_left"/>
    <node id="2254336646" x="7094.12" y="4741.93" type="priority"/>
    <node id="2254336652" x="7125.43" y="4786.66" type="priority"/>
    <node id="2254336653" x="7086.47" y="4795.07" type="right_before_left"/>
    <node id="2254336666" x="7101.05" y="4840.50" type="right_before_left"/>
    <node id="2254355403" x="5683.09" y="4190.89" type="priority"/>
    <node id="2254355417" x="5989.33" y="4405.26" type="priority"/>
    <node id="2254355422" x="5807.74" y="4438.91" type="priority"/>
    <node id="2254355424" x="5961.96" y="4452.48" type="priority"/>
    <node id="2254383931" x="5754.89" y="4151.60" type="priority"/>
    <node id="2254383941" x="5783.18" y="4169.30" type="priority"/>
    <node id="2254383955" x="5754.12" y="4187.92" type="right_before_left"/>
    <node id="2254383957" x="5771.38" y="4194.25" type="right_before_left"/>
    <node id="2254383966" x="5717.21" y="4221.72" type="right_before_left"/>
    <node id="2254383969" x="5737.58" y="4228.15" type="right_before_left"/>
    <node id="2254403302" x="5812.44" y="4295.84" type="right_before_left"/>
    <node id="2254403304" x="5785.41" y="4292.11" type="priority"/>
    <node id="2254403313" x="5826.30" y="4300.61" type="right_before_left"/>
    <node id="2254403331" x="5773.39" y="4324.75" type="right_before_left"/>
    <node id="2254403342" x="5795.99" y="4334.01" type="right_before_left"/>
    <node id="2254403378" x="5744.96" y="4416.72" type="priority"/>
    <node id="2254412055" x="5180.73" y="4598.58" type="priority"/>
    <node id="2254412061" x="5294.02" y="4643.84" type="priority"/>
    <node id="2254412099" x="5221.19" y="4695.03" type="priority"/>
    <node id="2254412105" x="5114.11" y="4731.26" type="priority"/>
    <node id="2254412108" x="5275.96" y="4763.41" type="priority"/>
    <node id="2254412111" x="5248.82" y="4772.37" type="priority"/>
    <node id="2254412116" x="5200.14" y="4787.53" type="priority"/>
    <node id="2254412118" x="5138.04" y="4806.00" type="priority"/>
    <node id="2254412119" x="5291.66" y="4810.44" type="priority"/>
    <node id="2254412121" x="5389.36" y="4861.88" type="priority"/>
    <node id="2254412125" x="5317.24" y="4885.33" type="priority"/>
    <node id="2254412128" x="5408.51" y="4918.70" type="priority"/>
    <node id="2254412131" x="5338.41" y="4945.55" type="priority"/>
    <node id="2254412147" x="5360.70" y="5015.08" type="priority"/>
    <node id="2254412154" x="5294.71" y="5070.63" type="priority"/>
    <node id="2254925466" x="5686.94" y="4990.46" type="priority"/>
    <node id="2254925479" x="6585.83" y="5278.06" type="priority"/>
    <node id="2254925482" x="6532.08" y="5269.54" type="priority"/>
    <node id="2254925485" x="6777.44" y="5261.41" type="right_before_left"/>
    <node id="2254925493" x="6804.31" y="5271.66" type="priority"/>
    <node id="2254925495" x="6298.13" y="5280.16" type="right_before_left"/>
    <node id="2254925499" x="6526.29" y="5286.15" type="right_before_left"/>
    <node id="2254925502" x="6579.69" y="5294.71" type="right_before_left"/>
    <node id="2254925516" x="6743.17" y="5318.90" type="right_before_left"/>
    <node id="2254925524" x="6504.04" y="5341.17" type="priority"/>
    <node id="2335298120" x="7272.59" y="5398.91" type="priority"/>
    <node id="2335298127" x="7305.18" y="5412.73" type="priority"/>
    <node id="2335298128" x="7360.07" y="5422.80" type="priority"/>
    <node id="2335298137" x="7349.41" y="5441.36" type="priority"/>
    <node id="2427640775" x="8869.93" y="6052.29" type="priority"/>
    <node id="2427640779" x="8939.15" y="6083.96" type="priority"/>
    <node id="2427640781" x="9040.40" y="6133.99" type="priority"/>
    <node id="2427640783" x="9089.32" y="6157.72" type="priority"/>
    <node id="2427640791" x="9347.47" y="6316.35" type="priority"/>
    <node id="2434892814" x="8981.12" y="5734.38" type="priority"/>
    <node id="2434892817" x="8978.72" y="5614.97" type="priority"/>
    <node id="2434892850" x="7170.18" y="5371.00" type="priority"/>
    <node id="2434892853" x="7224.89" y="5382.31" type="priority"/>
    <node id="2434892864" x="7023.69" y="5336.36" type="priority"/>
    <node id="2434892867" x="6994.81" y="5320.53" type="priority"/>
    <node id="2434892877" x="7007.52" y="5368.45" type="priority"/>
    <node id="2434892879" x="7020.31" y="5330.06" type="priority"/>
    <node id="2434892918" x="6982.06" y="5361.74" type="traffic_light" tl="2434892918"/>
    <node id="2434892926" x="7192.38" y="5793.19" type="priority"/>
    <node id="2434892938" x="6928.65" y="5605.72" type="priority"/>
    <node id="2434900653" x="8128.96" y="5827.35" type="priority"/>
    <node id="2434900656" x="7379.62" y="5803.64" type="priority"/>
    <node id="2434900669" x="8158.06" y="5839.11" type="priority"/>
    <node id="2434902857" x="5688.58" y="6076.78" type="priority"/>
    <node id="2434904365" x="6004.44" y="6658.84" type="priority"/>
    <node id="2434904368" x="6131.35" y="6117.83" type="priority"/>
    <node id="2434904369" x="6235.04" y="6126.01" type="priority"/>
    <node id="2434904371" x="6298.57" y="6456.90" type="priority"/>
    <node id="2434904376" x="5752.76" y="6195.10" type="priority"/>
    <node id="2434904380" x="5902.80" y="6029.26" type="priority"/>
    <node id="2434905901" x="5818.70" y="5972.67" type="right_before_left"/>
    <node id="2434906906" x="5989.78" y="6191.43" type="priority"/>
    <node id="2434906907" x="6115.21" y="6206.77" type="priority"/>
    <node id="2434906909" x="6215.97" y="6054.92" type="priority"/>
    <node id="2434906910" x="6245.15" y="6041.38" type="priority"/>
    <node id="2434906911" x="6257.47" y="5991.84" type="priority"/>
    <node id="2435101974" x="5999.86" y="3323.88" type="priority"/>
    <node id="2528958021" x="5951.45" y="6405.91" type="priority"/>
    <node id="2554523598" x="5882.24" y="5580.78" type="priority"/>
    <node id="2554523600" x="5746.92" y="5590.90" type="priority"/>
    <node id="2554523604" x="5908.69" y="5605.14" type="priority"/>
    <node id="2554523606" x="5831.80" y="5613.01" type="priority"/>
    <node id="2554523608" x="5940.39" y="5613.28" type="priority"/>
    <node id="2554523614" x="5758.13" y="5652.56" type="priority"/>
    <node id="2554523615" x="5902.35" y="5652.68" type="priority"/>
    <node id="2554523622" x="5630.09" y="5678.79" type="priority"/>
    <node id="2554523626" x="5765.29" y="5696.46" type="priority"/>
    <node id="2554523629" x="5659.90" y="5712.03" type="priority"/>
    <node id="2554523635" x="5990.11" y="5721.50" type="priority"/>
    <node id="2554523640" x="5835.89" y="5724.77" type="priority"/>
    <node id="2554523649" x="5934.70" y="5746.58" type="priority"/>
    <node id="2554523675" x="5731.48" y="5767.68" type="priority"/>
    <node id="2554523679" x="5717.50" y="5771.92" type="priority"/>
    <node id="2554523701" x="5997.26" y="5803.02" type="priority"/>
    <node id="2554523703" x="5483.69" y="5806.51" type="priority"/>
    <node id="2554523705" x="5555.42" y="5809.04" type="priority"/>
    <node id="2554523721" x="5891.40" y="5838.22" type="priority"/>
    <node id="2554523728" x="5572.94" y="5856.65" type="priority"/>
    <node id="2554523739" x="5791.95" y="5878.44" type="priority"/>
    <node id="2554523743" x="5791.29" y="5888.16" type="priority"/>