<?xml version="1.0" encoding="UTF-8"?>

<!-- generated on 2022-05-18 13:11:57 by Eclipse SUMO duarouter Version 1.13.0
<configuration xmlns:xsi="http://www.w3.org/2001/XMLSchema-instance" xsi:noNamespaceSchemaLocation="http://sumo.dlr.de/xsd/duarouterConfiguration.xsd">

    <input>
        <net-file value="C:\Users\abdel\Sumo\2022-05-18-13-10-58\ec.net.xml"/>
        <additional-files value="C:\Users\abdel\Sumo\2022-05-18-13-10-58\ec_stops.add.xml,C:\Users\abdel\Sumo\2022-05-18-13-10-58\ec_pt.rou.xml"/>
        <route-files value="C:\Users\abdel\Sumo\2022-05-18-13-10-58\ec.pedestrian.trips.xml"/>
    </input>

    <output>
        <output-file value="C:\Users\abdel\Sumo\2022-05-18-13-10-58\ec.pedestrian.rou.xml"/>
        <alternatives-output value="C:\Users\abdel\Sumo\2022-05-18-13-10-58\ec.pedestrian.rou.alt.xml"/>
    </output>

    <processing>
        <persontrip.walk-opposite-factor value="0.8"/>
    </processing>

    <time>
        <begin value="0"/>
        <end value="3600"/>
    </time>

    <report>
        <no-warnings value="true"/>
        <ignore-errors value="true"/>
        <no-step-log value="true"/>
    </report>

</configuration>
-->

<routes xmlns:xsi="http://www.w3.org/2001/XMLSchema-instance" xsi:noNamespaceSchemaLocation="http://sumo.dlr.de/xsd/routes_file.xsd">
    <vType id="ped_pedestrian" vClass="pedestrian"/>
    <person id="ped11" type="ped_pedestrian" depart="10.00">
        <walk edges="1030895344 775122553#2 775122553#1 775599630#1" busStop="7053545573"/> <!-- مكتبة قطر الوطنية -->
        <ride busStop="7053545564" lines="Green:0" intended="pt_subway_Green:0.0" depart="874.00"/> <!-- المدينة التعليمية -->
        <walk edges="771920467#1 854030731#0 1032717779 1032717777#3 1032717777#2 1032717777#1 1032717777#0 1032717777#9 1032717778 1032717780#1 1040377623#2 1040377623#1 1040377621 1040377624#4 -1038286773#13 -1038286773#12 -1038286773#11 -1038286773#10 -1038286773#9 -1038286773#8 -1038286773#6 -1038286773#5 -1038286773#2 -1038286773#1 321073238#1 -321073253#0"/>
    </person>
    <person id="ped12" type="ped_pedestrian" depart="20.73">
        <walk edges="775599632 775599630#1 775122553#1 1030895343 1030895339#1 1030895339#0 1030895340 1030895326#1 1030895326#0 1058755915#0 159457866 1058755920 159457877#15 1030895332#1 -658369595#1 -684402134#1 1030895335"/>
    </person>
    <person id="ped15" type="ped_pedestrian" depart="25.91">
        <walk edges="755285216#1 -755285219 684135614#1 -216048794 622888969#2 622888969#0"/>
    </person>
    <person id="ped30" type="ped_pedestrian" depart="51.82">
        <walk edges="885883449#5 1038393244#0 1038393244#1 1038393244#2 885883443#1 885883443#2 885883443#3" busStop="6409037859"/> <!-- Education City Stadium -East -->
        <ride busStop="6409038201" lines="Blue_Line:0" intended="pt_tram_Blue_Line:0.1" depart="831.00"/> <!-- NorthNest -->
        <ride busStop="6409038432" lines="Yellow_Line:1" intended="pt_tram_Yellow_Line:1.1" depart="1262.00"/> <!-- Multaqa -->
        <walk edges="775380334#3 775380334#2 -775380335#1 775380336 775380340#0 775380341 775599629 775599632" busStop="7053545573"/> <!-- مكتبة قطر الوطنية -->
        <ride busStop="7053545564" lines="Green:0" intended="pt_subway_Green:0.2" depart="2074.00"/> <!-- المدينة التعليمية -->
        <walk edges="771920467#1 854030731#0 1032717779 1032717777#3 1032717777#2 1032717777#1 1032717777#0 1032717777#9 1032717778 1032717780#1 1040377623#2 1040377623#1 1040377621 1040377624#4 -1038286773#13 -1038286773#12 -1038286773#11 -1038286773#10 -1038286773#9 -1038286773#8 -1038286773#6 -1038286773#5 -1038286773#2 -1038286773#1 -1038286773#0 321073258 321073259#0"/>
    </person>
    <person id="ped41" type="ped_pedestrian" depart="70.82">
        <walk edges="159457877#17 1030895331 159457876#0 159457876#1 159457887#18 1030895326#0 1058756383#2 1058756383#3 1058756383#4 775348241#1 775348241#0 775348239#0 775348239#1 775348238#1 775348236#2 775348236#1 775348236#0 775348234#1 775348232#1 775348231#3 775348231#2 775348231#1 775348227#2 775348227#1 775348227#0 775348230 775348229#1 775348229#2"/>
    </person>
    <person id="ped53" type="ped_pedestrian" depart="91.55">
        <walk edges="-159453456 -684135622#6 -684135622#5 -684135622#4 -684135622#3 -684135622#2 -684135622#1 -684135622#0" busStop="9280145743"/> <!-- 2015 -->
        <ride busStop="7120440202" lines="Yellow_Line:0" intended="pt_tram_Yellow_Line:0.0" depart="770.00"/> <!-- Education City Stadium - East -->
        <walk edges="1038395174 1038395183#1 1038395183#2 1038395183#3"/>
    </person>
    <person id="ped59" type="ped_pedestrian" depart="101.91">
        <walk edges="216047552#0 622888969#0 622888969#2 216048794 -684135614#1" busStop="6409038201"/> <!-- NorthNest -->
        <ride busStop="6409038432" lines="Yellow_Line:1" intended="pt_tram_Yellow_Line:1.0" depart="662.00"/> <!-- Multaqa -->
        <walk edges="775380334#3 775380334#2 -775380335#1 775380336 775380340#0 775380341 775599629 775599632" busStop="7053545573"/> <!-- مكتبة قطر الوطنية -->
        <ride busStop="7053545564" lines="Green:0" intended="pt_subway_Green:0.1" depart="1474.00"/> <!-- المدينة التعليمية -->
        <walk edges="771920467#1 854030731#0 1032717779 1032717777#3 1032717777#2 1032717777#1 1032717777#0 1032717777#9 1032717778 1032717780#1 1040377623#2 1040377623#1 1040377621 1040377624#4 -1038286773#13 -1038286773#12 -1038286773#11 -1038286773#10 -1038286773#9 -1038286773#8 -1038286773#6 -1038286773#5 -1038286773#2 -1038286773#1 321073238#1 321073238#2 -321073239#0"/>
    </person>
    <person id="ped62" type="ped_pedestrian" depart="107.10">
        <walk edges="-1005819186#0 1005819184#0 1005819184#1 1005819184#2"/>
    </person>
    <person id="ped70" type="ped_pedestrian" depart="120.91">
        <walk edges="1040377622 1040377623#1 1040377623#2 1032717780#1 1032717780#0 1032717782#1 1032717781 1032717777#2 1032717777#3 1032717779 854030731#0 771920467#1" busStop="7053538456"/> <!-- المدينة التعليمية -->
        <ride busStop="7053538465" lines="Green:1" intended="pt_subway_Green:1.1" depart="1285.00"/> <!-- مكتبة قطر الوطنية -->
        <walk edges="775599630#1 775122553#1 1030895343 1030895339#1 1030895339#0 1030895340 1030895326#1 1058756383#2"/>
    </person>
    <person id="ped78" type="ped_pedestrian" depart="134.73">
        <walk edges="1030895339#1 1030895339#0 1030895340 1030895326#1 1058756383#2 1058756383#3 1058756383#4 775348241#2 775348243 159455879#2 775252894#1 159455899#1 1030895328 159457887#8 159457878#1"/>
    </person>
    <person id="ped95" type="ped_pedestrian" depart="164.10">
        <walk edges="1038390121#0 770717824#1 770717824#0 770717820#3 770717820#2 770717820#1 1042728029#2 770708083" busStop="6409038441"/> <!-- Al Khater House -->
        <walk edges="775380342 775380341 775599629 775599632" busStop="7053545573"/> <!-- مكتبة قطر الوطنية -->
        <ride busStop="7053545564" lines="Green:0" intended="pt_subway_Green:0.1" depart="1474.00"/> <!-- المدينة التعليمية -->
        <walk edges="771920467#1 854030731#0 1032717779 1032717777#3 1032717777#2 1032717777#1 1032717777#0 1032717777#9 1032717778 1032717780#1 1040377623#2 1040377623#1 1040377621 1040377624#4 -1038286773#13 -1038286773#12 -1038286773#11 -1038286773#10 772396533#1 -772397557#1 772396531#0 772396531#1 772396531#2 772396530 -772396530"/>
    </person>
    <person id="ped96" type="ped_pedestrian" depart="165.82">
        <walk edges="-658369595#3 -658369595#2 1030895332#1 159457877#15 1058755920 159457866 1058755915#0 1030895326#0 1058756383#2 1058756383#3 1058756383#4 775348241#1 775348242 775122566#1 775122567#1 775348245 775348244#1 775252890#1 775252890#2 775380323 775348263#1 775348294 770708091#0 770708088 770708087#1 775348287#0 775348287#1 775348281#2 775348282#1 775348280#4"/>
    </person>
    <person id="ped98" type="ped_pedestrian" depart="169.28">
        <walk edges="1058756383#3 1058756383#2 1030895326#1 1030895340 1030895339#0 1030895339#1 1030895343 775122553#1 775599630#1" busStop="7053545573"/> <!-- مكتبة قطر الوطنية -->
        <ride busStop="7053545564" lines="Green:0" intended="pt_subway_Green:0.0" depart="874.00"/> <!-- المدينة التعليمية -->
        <walk edges="771920467#1 854030731#0 1032717779 1032717777#3 1032717777#2 1032717777#1 1032717777#0 1032717777#9 1032717778 1032717780#1 1040377623#2 1040377623#1 1040377621 1040377624#4 -1038286773#13 -1038286773#12 -1038286773#11 -1038286773#10 -1038286773#9"/>
    </person>
    <person id="ped107" type="ped_pedestrian" depart="184.83">
        <walk edges="775599632 775599629 -775430848#0 775380342" busStop="6409038441"/> <!-- Al Khater House -->
        <walk edges="770708083 1042728029#2 770717820#1 770717820#2 770717820#3 770717820#4 688557372#1" busStop="6409038451"/> <!-- Education City Mosque -->
        <ride busStop="6409038477" lines="Yellow_Line:1" intended="pt_tram_Yellow_Line:1.0" depart="1006.00"/> <!-- Oxygen Park -->
        <walk edges="-900140270 -900140271#7 900140271#7"/>
    </person>
    <person id="ped114" type="ped_pedestrian" depart="196.92">
        <walk edges="-321073256 -321073255#1 1038286773#2 1038286773#5 1038286773#6 1038286773#8 1038286773#9 1038286773#10 1038286773#11 1038286773#12 1038286773#13 -1040377624#4 1040377621 1040377623#1 1040377623#2 1032717780#1 1032717780#0 1032717782#1 1032717781 1032717777#2 1032717777#3 1032717779 854030731#0 771920467#1" busStop="7053538456"/> <!-- المدينة التعليمية -->
        <ride busStop="7053538465" lines="Green:1" intended="pt_subway_Green:1.3" depart="2485.00"/> <!-- مكتبة قطر الوطنية -->
        <walk edges="775599630#1 775122553#1 1030895343 1030895339#1 1030895339#0 1030895340 1030895326#1 1030895326#0 1058755915#0 1058755915#1 159457861 1030895333 159457877#13 159457877#12 1038390123#1" busStop="-9280145743"/> <!-- 2015 -->
        <walk edges="-684135622#0 -159453466#2 -159453466#1 -159453466#0 1038390124 1038390125 814050150#3 814050150#2 814050150#1 814050150#0"/>
    </person>
    <person id="ped120" type="ped_pedestrian" depart="207.28">
        <walk edges="1038357448 1038357450#1 775348235#5 775348235#4 775348235#2 1058755918 159457887#1 159457887#2 413458160 159457889#2 159457889#1 159457889#0 159457877#5 159457877#6 159457877#7 159457877#8 159457877#9 159457877#10 159457877#11 159457877#12 159457877#13 159457877#14"/>
    </person>
    <person id="ped127" type="ped_pedestrian" depart="219.37">
        <walk edges="994872977 -479621749#1 479621748 625418522 479797342#0 479797342#1 479797342#2 479797342#3 479797342#4 479797342#5 379986692#0 379986692#1 379986698#7 379986726 -658333929#2 -1038390596 -658333929#0 901285512#1"/>
    </person>
    <person id="ped130" type="ped_pedestrian" depart="224.55">
        <walk edges="775122544#1 775122544#0 775122539#1 775122540"/>
    </person>
    <person id="ped133" type="ped_pedestrian" depart="229.74">
        <walk edges="216047555#0 -216047553#0 -216047552#0 622888969#0 622888969#2 -755285217 216048792#1" busStop="9280145741"/> <!-- Qatar Academy - South -->
        <ride busStop="7120440202" lines="Yellow_Line:0" intended="pt_tram_Yellow_Line:0.0" depart="958.00"/> <!-- Education City Stadium - East -->
        <walk edges="885883443#3 885883443#2 885883446"/>
    </person>
    <person id="ped138" type="ped_pedestrian" depart="238.37">
        <walk edges="-1046695803#2 -1046695803#1 1039220264#0 -379986720#3 -379986720#2 -379986720#1 1039220271#0 1039220273#0 1039220274#1 1039220274#0 -145126346#0 1040615361 145126348#2"/>
    </person>
    <person id="ped144" type="ped_pedestrian" depart="248.74">
        <walk edges="1038390122#3 1038390119 -772391454#0"/>
    </person>
    <person id="ped146" type="ped_pedestrian" depart="252.19">
        <walk edges="321073254 321073241#3 321073257#0 -321073239#2 -321073239#1 -321073238#2 -321073238#1 1038286773#1 1038286773#2 1038286773#5 1038286773#6 1038286773#8 1038286773#9 1038286773#10 1038286773#11 1038286773#12 1038286773#13 -1040377624#4 1040377621 1040377623#1 1040377623#2 1032717780#1 1032717780#0 1032717782#1 1032717781 1032717777#2 1032717777#3 1032717779 854030731#0 771920467#1" busStop="7053538456"/> <!-- المدينة التعليمية -->
        <ride busStop="7053538465" lines="Green:1" intended="pt_subway_Green:1.4" depart="3085.00"/> <!-- مكتبة قطر الوطنية -->
        <walk edges="775599630#1 775122552#1 1032708719 1032708720 1032708725#1 1038801183#3 1038801183#2 1038801183#1 1038801183#0 1038395187#1 1038395197#4 1038395197#5 1038395196#1 1038395192#0 1038395192#1 1038395183#0" busStop="6409037859"/> <!-- Education City Stadium -East -->
        <ride busStop="6409038272" lines="Blue_Line:0"/> <!-- Qatar Academy - North -->
        <walk edges="166533033#2 -166533033#1 -166533033#0 -684135625#3"/>
    </person>
    <person id="ped148" type="ped_pedestrian" depart="255.65">
        <walk edges="1038393145#1 1032698570#1 -1032698570#1"/>
    </person>
    <person id="ped150" type="ped_pedestrian" depart="259.10">
        <walk edges="775348239#1 775348239#0 775348241#0 775348241#1 1058756383#4 1058756383#3 1058756383#2 1058756383#1 775122561#1 159457887#20 159457887#21 1058755913#0"/>
    </person>
    <person id="ped167" type="ped_pedestrian" depart="288.47">
        <walk edges="774852752#2 774852724#1 774852723#7 774852723#6 774852723#5"/>
    </person>
    <person id="ped184" type="ped_pedestrian" depart="317.83">
        <walk edges="-1005819188 1005819188" busStop="6409038223"/> <!-- Ceremonial Gate -->
        <ride busStop="6409038441" lines="Yellow_Line:1" intended="pt_tram_Yellow_Line:1.0" depart="735.00"/> <!-- Al Khater House -->
        <walk edges="770708083 770717819#0 775348293 775348294 770708091#0 770708088 770708087#1 775348287#0 775348287#1 775348281#2 775348282#1"/>
    </person>
    <person id="ped193" type="ped_pedestrian" depart="333.38">
        <walk edges="-159457875#13 -159457875#12 -159457875#11 -159457875#10 -159457875#9 -159457875#8 -159457875#7 1038357450#2 1038357450#1"/>
    </person>
    <person id="ped195" type="ped_pedestrian" depart="336.83">
        <walk edges="775348237#0 775348238#1 775348239#1 775348239#0 775348241#0 775348242 775122566#1 775122567#1 1058755919" busStop="9280145745"/> <!-- Multaqa -->
        <ride busStop="9280145761" lines="Yellow_Line:0" intended="pt_tram_Yellow_Line:0.0" depart="654.00"/> <!-- NorthNest -->
        <walk edges="755285216#0 -755285219 684135614#1 -216048794 -755285217 216048793#0"/>
    </person>
    <person id="ped196" type="ped_pedestrian" depart="338.56">
        <walk edges="-853497624#1 1038801182#1 1038801182#2 1038801182#3 1038395197#5 1038395196#1 1038395192#0 1038395192#1 1038395183#0" busStop="6409037859"/> <!-- Education City Stadium -East -->
        <ride busStop="6409038201" lines="Blue_Line:0" intended="pt_tram_Blue_Line:0.1" depart="831.00"/> <!-- NorthNest -->
        <ride busStop="6409038254" lines="Yellow_Line:1" intended="pt_tram_Yellow_Line:1.1" depart="1262.00"/> <!-- 2015 -->
        <walk edges="1038390123#1 159457877#12 1058755916#1"/>
    </person>
    <person id="ped197" type="ped_pedestrian" depart="340.29">
        <walk edges="-1005819186#0 1005819186#1 1005819188" busStop="6409038223"/> <!-- Ceremonial Gate -->
        <ride busStop="6409038432" lines="Yellow_Line:1" intended="pt_tram_Yellow_Line:1.0" depart="735.00"/> <!-- Multaqa -->
        <walk edges="775380330#2 -775380330#2 -775380330#1 775122571#1 775122572#1 775122555#3 1030895339#0 1030895340 775122551#0 775122551#2 -775122551#2"/>
    </person>
    <person id="ped198" type="ped_pedestrian" depart="342.01">
        <walk edges="1038393245 -885883449#1 885883443#0 885883443#1 885883443#2 885883443#3" busStop="6409037859"/> <!-- Education City Stadium -East -->
        <ride busStop="6409038201" lines="Blue_Line:0" intended="pt_tram_Blue_Line:0.1" depart="831.00"/> <!-- NorthNest -->
        <ride busStop="6409038432" lines="Yellow_Line:1" intended="pt_tram_Yellow_Line:1.1" depart="1262.00"/> <!-- Multaqa -->
        <walk edges="1058755919 775122567#1 775122566#1 775348242 775348241#0 775348239#0 775348239#1 775348238#1 775348236#2 775348236#1 775348236#0 775348235#1 775348235#2 775348235#4 1038357447#0 -159457870#2 1038357450#0 1038357450#1 1038357450#2 159457875#7"/>
    </person>
    <person id="ped201" type="ped_pedestrian" depart="347.20">
        <walk edges="1039441284 -1039441284" busStop="9280145752"/> <!-- SouthNest -->
        <ride busStop="9280145745" lines="Yellow_Line:0" intended="pt_tram_Yellow_Line:0.1" depart="1047.00"/> <!-- Multaqa -->
        <walk edges="1058755919 775122567#1 775122566#1 775348242 775348241#0 775348239#0 775348239#1 775348238#1 775348236#2 775348236#1 775348236#0 775348235#1 775348235#2 775348235#4 775348235#5"/>
    </person>
    <person id="ped204" type="ped_pedestrian" depart="352.38">
        <walk edges="321073241#4 321073257#0 -321073239#2 -321073239#1 -321073238#2 -321073238#1 1038286773#1 1038286773#2 1038286773#5 1038286773#6 1038286773#8 1038286773#9 1038286773#10 1038286773#11 1038286773#12 1038286773#13 -1040377624#4 1040377621 1040377623#1 1040377623#2 1032717780#1 1032717780#0 1032717782#1 1032717781 1032717777#2 1032717777#3 1032717779 854030731#0 771920467#1" busStop="7053538456"/> <!-- المدينة التعليمية -->
        <ride busStop="7053538465" lines="Green:1" intended="pt_subway_Green:1.4" depart="3085.00"/> <!-- مكتبة قطر الوطنية -->
        <walk edges="775599630#1 775122553#1 1030895343 1030895339#1 1030895339#0 1030895340 1030895326#1 1030895326#0 159457887#18 159457876#1 159457876#0 1030895331"/>
    </person>
    <person id="ped215" type="ped_pedestrian" depart="371.38">
        <walk edges="-1046695803#0 1039220264#0 -379986720#3 -379986720#2 -379986720#1 -379986720#0 1038390595#0"/>
    </person>
    <person id="ped221" type="ped_pedestrian" depart="381.74">
        <walk edges="159457887#12 159457885#0 159457882#0 159457877#9 159457877#10" busStop="6409038254"/> <!-- 2015 -->
        <ride busStop="6409038451" lines="Yellow_Line:1" intended="pt_tram_Yellow_Line:1.0" depart="803.00"/> <!-- Education City Mosque -->
        <walk edges="1038390121#0 770717824#1 770717825#1 775384755 775384754#1"/>
    </person>
    <person id="ped222" type="ped_pedestrian" depart="383.47">
        <walk edges="775252890#1 775348244#1 775348245 1058755919" busStop="9280145745"/> <!-- Multaqa -->
        <ride busStop="9280145741" lines="Yellow_Line:0" intended="pt_tram_Yellow_Line:0.0" depart="654.00"/> <!-- Qatar Academy - South -->
        <walk edges="-216047552#4 -216047552#3 -216047565#0 216047555#3"/>
    </person>
    <person id="ped224" type="ped_pedestrian" depart="386.92">
        <walk edges="772396533#2 772397557#2 772396534#1 1038286773#11 1038286773#12 1038286773#13 -1040377624#4 1040377621 1040377623#1 1040377623#2 1032717780#1 1032717780#0 1032717782#1 1032717781 1032717777#2 1032717777#3 1032717779 854030731#0 771920467#1" busStop="7053538456"/> <!-- المدينة التعليمية -->
        <ride busStop="7053538465" lines="Green:1" intended="pt_subway_Green:1.3" depart="2485.00"/> <!-- مكتبة قطر الوطنية -->
        <walk edges="775599630#1 775122553#1 1030895343 1030895339#1 1030895339#0 1030895340 1030895326#1 1030895326#0 1058755915#0 1058755915#1 159457861 1058755916#0 1058755916#1"/>
    </person>
    <person id="ped226" type="ped_pedestrian" depart="390.38">
        <walk edges="1039442040#1 1039442039" busStop="6409038254"/> <!-- 2015 -->
        <walk edges="-159453462 684135622#1 684135622#2 684135622#3 684135622#4 684135622#5 -684135622#6"/>
    </person>
    <person id="ped233" type="ped_pedestrian" depart="402.47">
        <walk edges="-625397280 -479814660#0 479814660#0"/>
    </person>
    <person id="ped237" type="ped_pedestrian" depart="409.38">
        <walk edges="1038357450#1 775348235#5 775348235#4 775348235#2 775348235#1 775348236#0 775348236#1 775348236#2 775348238#1 775348239#1 775348239#0 775348241#0 775348241#1 775348241#2"/>
    </person>
    <person id="ped244" type="ped_pedestrian" depart="421.47">
        <walk edges="1058755913#1 1058755913#2 159457887#20 159457887#19 159457887#18 159457887#17 159457887#16 159457887#15 159457887#14 159457887#13 159457887#12 159457887#11 159457887#10 159457887#9 159457887#8 159457887#7 159457887#6 159457887#5 159457887#4 413458159 159457889#3"/>
    </person>
    <person id="ped263" type="ped_pedestrian" depart="454.29">
        <walk edges="775384754#0 1042704112 770717820#1 1042728029#2 770708083" busStop="6409038441"/> <!-- Al Khater House -->
        <walk edges="775380342 -775380340#0 -775380336 775380335#1 -775380334#2 -775380334#3" busStop="9280145745"/> <!-- Multaqa -->
        <ride busStop="9280145761" lines="Yellow_Line:0" intended="pt_tram_Yellow_Line:0.1" depart="1254.00"/> <!-- NorthNest -->
        <walk edges="755285216#0 -755285219 684135614#1 -216048794 -755285217 -479797291"/>
    </person>
    <person id="ped270" type="ped_pedestrian" depart="466.38">
        <walk edges="770717819#1 770717819#0 770708083" busStop="6409038441"/> <!-- Al Khater House -->
        <walk edges="775380342 -775380340#0 -775380336 775380335#1 -775380334#2 -775380334#3" busStop="9280145745"/> <!-- Multaqa -->
        <ride busStop="9280145743" lines="Yellow_Line:0" intended="pt_tram_Yellow_Line:0.1" depart="1254.00"/> <!-- 2015 -->
        <walk edges="-684135622#0 -159453466#2 -159453466#1 -159453466#0 1038390124 1038390125 814050150#3 814050150#2 814050150#1 814050150#0 814050151#6 814050151#5 814050151#4"/>
    </person>
    <person id="ped278" type="ped_pedestrian" depart="480.20">
        <walk edges="-159457860 159457875#3 159457875#4 -159457874#1 -159457874#0 -159457870#3 1038357447#0 775348235#4 775348235#2 1058755918 159457887#1 159457887#2 413458160 159457889#2 159457889#1 159457889#0 159457877#5 159457877#6 159457877#7 159457877#8 159457877#9 159457877#10 159457877#11 1038390123#1" busStop="9280145743"/> <!-- 2015 -->
        <ride busStop="7120440202" lines="Yellow_Line:0" intended="pt_tram_Yellow_Line:0.1" depart="1370.00"/> <!-- Education City Stadium - East -->
        <walk edges="885883443#3 885883443#2 885883443#1 885883443#0"/>
    </person>
    <person id="ped279" type="ped_pedestrian" depart="481.93">
        <walk edges="684135622#3 -684135622#2 -684135622#1 -684135622#0" busStop="9280145743"/> <!-- 2015 -->
        <ride busStop="9280145761" lines="Yellow_Line:0" intended="pt_tram_Yellow_Line:0.0" depart="770.00"/> <!-- NorthNest -->
        <walk edges="755285216#0 -755285216#0" busStop="6409038201"/> <!-- NorthNest -->
        <ride busStop="6409037874" lines="Blue_Line:0" intended="pt_tram_Blue_Line:0.1" depart="982.00"/> <!-- Academy Green Spine -->
        <walk edges="1038801183#2 1038801183#3 1032708725#0 1032708722#1 1032708722#0"/>
    </person>
    <person id="ped292" type="ped_pedestrian" depart="504.38">
        <walk edges="775122549#1 773553556#0 773553556#1 773553557#1 658140792#1 -658140792#1"/>
    </person>
    <person id="ped293" type="ped_pedestrian" depart="506.11">
        <walk edges="1039366543#0 775348226#3 775348227#1 775348227#2 775348231#1 775348231#2 775348231#3 775348232#1 775348234#1 775348236#0 775348236#1 775348236#2 775348238#1 775348239#1 159455879#1 159455879#2 775252894#1 159455899#1 1030895328 159457887#9 159457887#10 159457882#1 159457882#0 159457877#9 159457877#10 159457877#11 1038390123#1" busStop="9280145743"/> <!-- 2015 -->
        <ride busStop="9280145741" lines="Yellow_Line:0" intended="pt_tram_Yellow_Line:0.1" depart="1370.00"/> <!-- Qatar Academy - South -->
        <walk edges="-216047552#4 216047552#4"/>
    </person>
    <person id="ped294" type="ped_pedestrian" depart="507.84">
        <walk edges="1032959315#0 1032959315#1 -1032959315#1"/>
    </person>
    <person id="ped299" type="ped_pedestrian" depart="516.48">
        <walk edges="-1032698572 -1032698573#0 -1032698570#1 1038393145#1 1038393145#0 885883444#2 885883444#1 885883444#0" busStop="6409037859"/> <!-- Education City Stadium -East -->
        <ride busStop="6409038432" lines="Yellow_Line:1" intended="pt_tram_Yellow_Line:1.1" depart="1107.00"/> <!-- Multaqa -->
        <walk edges="775380334#3 775380334#2 -775380335#1 775380336 775380340#0 775380341 -775380346 775380346"/>
    </person>
    <person id="ped306" type="ped_pedestrian" depart="528.57">
        <walk edges="159457877#0 159457889#4 159457889#3 413458159 159457887#4 159457887#5 159457887#6 413458161 -775252894#1 -775252894#0 -159455879#1 775348239#0 775348241#0 775348242 775122566#1 775122567#1 1058755919" busStop="6409038432"/> <!-- Multaqa -->
        <walk edges="775380334#3 775380334#2 -775380335#1 775380336 775380340#0 775380342" busStop="6409038441"/> <!-- Al Khater House -->
        <ride busStop="5897499227" lines="Yellow_Line:1" intended="pt_tram_Yellow_Line:1.1" depart="1545.00"/> <!-- SouthNest -->
        <walk edges="-1039441284 1039441284"/>
    </person>
    <person id="ped310" type="ped_pedestrian" depart="535.48">
        <walk edges="-661149580#0 659807190#0" busStop="-6409037838"/> <!-- Education City Stadium - North -->
        <walk edges="885883449#0 885883443#0 885883443#1 885883443#2 885883443#3" busStop="6409037859"/> <!-- Education City Stadium -East -->
        <ride busStop="6409038201" lines="Blue_Line:0" intended="pt_tram_Blue_Line:0.2" depart="1431.00"/> <!-- NorthNest -->
        <ride busStop="6409038432" lines="Yellow_Line:1" intended="pt_tram_Yellow_Line:1.2" depart="1862.00"/> <!-- Multaqa -->
        <walk edges="1058755919 775122567#1 775122566#1 775348242 775348241#0 775348239#0 775348239#1 775348238#1 775348236#2 775348236#1 159455896#1 -159455896#1"/>
    </person>
    <person id="ped343" type="ped_pedestrian" depart="592.48">
        <walk edges="159457886#2 159457879#0 159457877#6 159457877#7 159457877#8 159457877#9 159457877#10" busStop="6409038254"/> <!-- 2015 -->
        <ride busStop="6409038432" lines="Yellow_Line:1" intended="pt_tram_Yellow_Line:1.0" depart="803.00"/> <!-- Multaqa -->
        <walk edges="775380330#2 -775380330#2"/>
    </person>
    <person id="ped349" type="ped_pedestrian" depart="602.84">
        <walk edges="1038390595#0 379986720#0 379986720#1 379986720#2 379986720#3 379986720#5 -379986698#0 1046698600"/>
    </person>
    <person id="ped354" type="ped_pedestrian" depart="611.48">
        <walk edges="-775252890#1 775348244#0 775348246#0 775348248#1 775348247#1 775348250 775348236#1 775348236#0 775348235#1 775348235#2 775348235#4 1038357447#0 159457870#3 159457874#0 159457874#1 -159457875#4 -159457875#3 159457860 159457875#12 159457875#13 -159457871"/>
    </person>
    <person id="ped359" type="ped_pedestrian" depart="620.12">
        <walk edges="1005819181#3 1005819180#2 1005819180#1 1005819180#0 1005819183#0 1005819183#1" busStop="6409038223"/> <!-- Ceremonial Gate -->
        <ride busStop="6409038254" lines="Yellow_Line:1" intended="pt_tram_Yellow_Line:1.1" depart="1335.00"/> <!-- 2015 -->
        <walk edges="1038390123#1 159457877#12 159457877#13 159457877#14 159457877#15 1030895332#1 658369595#2 658369595#3 658369595#4 -658369595#6 -658369595#5"/>
    </person>
    <person id="ped369" type="ped_pedestrian" depart="637.39">
        <walk edges="1032708722#2 1032708725#0 1038801183#3 1038801183#2 1038801183#1 1038801183#0 1038395187#1 1038395197#4 1038395197#5 1038395196#1 1038395192#0 1038395192#1 1038395183#0" busStop="6409037859"/> <!-- Education City Stadium -East -->
        <ride busStop="6409038432" lines="Yellow_Line:1" intended="pt_tram_Yellow_Line:1.2" depart="1707.00"/> <!-- Multaqa -->
        <walk edges="775380334#3 775380334#2 -775380335#1 775380336 775380340#0 775380341 775599629 775599632" busStop="7053545573"/> <!-- مكتبة قطر الوطنية -->
        <ride busStop="7053545564" lines="Green:0" intended="pt_subway_Green:0.3" depart="2674.00"/> <!-- المدينة التعليمية -->
        <walk edges="771920467#1 854030731#0 1032717779 1032717777#3 1032717777#2 1032717777#1 1032717777#0 1032717777#9 1032717778 1032717780#1 1040377623#2 1040377623#1 1040377621 1040377624#4 -1038286773#13 -1038286773#12 -1038286773#11 -1038286773#10 -1038286773#9 -1038286773#8 -1038286773#6 -1038286773#5 1011740247#1 1011740247#3"/>
    </person>
    <person id="ped372" type="ped_pedestrian" depart="642.57">
        <walk edges="-775252890#0 775348244#1 775348245 1058755919" busStop="6409038432"/> <!-- Multaqa -->
        <walk edges="775380334#3 775380334#2 775380334#3"/>
    </person>
    <person id="ped373" type="ped_pedestrian" depart="644.30">
        <walk edges="770708094#0 583455459#1 775348288 775348274#3 775348285#0 775348285#1 775348285#2 775348285#3 770708091#0 775348294 775348263#1 775380323 -775252890#2 -775252890#1 775348244#1 775348245 775122567#1 775122566#1 775348242 775348241#1 1058756383#4 1058756383#3"/>
    </person>
    <person id="ped382" type="ped_pedestrian" depart="659.84">
        <walk edges="1058756383#0 1058756383#1 1058756383#2 1058756383#3 1058756383#4 775348241#1 775348242 775122566#1 775122567#1 775348245 775348244#1 775252890#1 775252890#2 775380323 775348263#1 775348294 770708091#0 775348285#3 775348285#2 775348285#1"/>
    </person>
    <person id="ped384" type="ped_pedestrian" depart="663.30">
        <walk edges="-159457862 159457875#9 -159457874#2 -159457874#1 -159457874#0 -159457870#3 1038357447#0 775348235#4 775348235#2 775348235#1 775348236#0 775348236#1 775348236#2 775348238#1 775348239#1 775348239#0 775348241#0 775348241#1 1058756383#4 1058756383#3 1058756383#2 1030895326#1 1030895340 1030895339#0 1030895339#1 1030895343 775122553#1 775599630#1" busStop="7053538465"/> <!-- مكتبة قطر الوطنية -->
        <ride busStop="7053538476" lines="Green:1" intended="pt_subway_Green:1.0" depart="1724.00"/> <!-- الشقب -->
        <walk edges="-854052889 854052889"/>
    </person>
    <person id="ped388" type="ped_pedestrian" depart="670.21">