<?xml version="1.0" encoding="UTF-8"?>

<!-- generated on 2022-05-18 13:11:25 by Eclipse SUMO polyconvert Version 1.13.0
<configuration xmlns:xsi="http://www.w3.org/2001/XMLSchema-instance" xsi:noNamespaceSchemaLocation="http://sumo.dlr.de/xsd/polyconvertConfiguration.xsd">

    <input>
        <net-file value="ec.net.xml"/>
        <ec-files value="ec_bbox.ec.xml.gz"/>
        <ec.keep-full-type value="true"/>
        <type-file value="C:\Program%20Files%20(x86)\Eclipse\Sumo\data\typemap\ecPolyconvert.typ.xml"/>
    </input>

    <output>
        <output-file value="ec.poly.xml"/>
    </output>

    <processing>
        <poi-layer-offset value="5"/>
    </processing>

    <report>
        <verbose value="true"/>
    </report>

</configuration>
-->

<additional xmlns:xsi="http://www.w3.org/2001/XMLSchema-instance" xsi:noNamespaceSchemaLocation="http://sumo.dlr.de/xsd/additional_file.xsd">
    <location netOffset="-536363.18,-2795000.78" convBoundary="0.00,-276.62,17504.52,8142.95" origBoundary="51.361288,25.268292,51.534993,25.344231" projParameter="+proj=utm +zone=39 +ellps=WGS84 +datum=WGS84 +units=m +no_defs"/>

    <poly id="1040628808" type="amenity.fuel" color="237,199,199" fill="1" layer="-1.00" shape="5328.612194,3771.810269 5353.438505,3764.301585 5348.185326,3747.575275 5342.505314,3728.898695 5317.649055,3736.307646 5328.612194,3771.810269"/>
    <poly id="1040628808#1" type="building.roof" color="255,230,230" fill="1" layer="-1.00" shape="5328.612194,3771.810269 5353.438505,3764.301585 5348.185326,3747.575275 5342.505314,3728.898695 5317.649055,3736.307646 5328.612194,3771.810269"/>
    <poly id="1041448607" type="leisure.pitch" color="207,245,201" fill="1" layer="-2.00" shape="8407.152317,4663.635199 8365.523848,4638.525983 8399.190969,4581.586175 8444.058000,4607.503553 8407.152317,4663.635199"/>
    <poly id="1041448608" type="landuse.grass" color="194,194,130" fill="1" layer="-3.00" shape="7751.938642,4243.678597 7795.470586,4266.112273 7812.577114,4237.033517 7769.048145,4213.669611 7751.938642,4243.678597"/>
    <poly id="1041448609" type="landuse.grass" color="194,194,130" fill="1" layer="-3.00" shape="7800.321360,4269.483467 7843.843077,4291.917269 7860.949679,4262.838573 7817.420911,4239.463435 7800.321360,4269.483467"/>
    <poly id="1041448610" type="landuse.grass" color="194,194,130" fill="1" layer="-3.00" shape="7849.232117,4296.895925 7892.763732,4319.329921 7909.860341,4290.251252 7866.341810,4266.875985 7849.232117,4296.895925"/>
    <poly id="1041448611" type="landuse.grass" color="194,194,130" fill="1" layer="-3.00" shape="7897.070042,4322.965132 7940.601495,4345.399286 7957.698177,4316.320676 7914.179811,4292.945252 7897.070042,4322.965132"/>
    <poly id="1041448612" type="landuse.grass" color="194,194,130" fill="1" layer="-3.00" shape="7876.561505,4361.157314 7920.092866,4383.591404 7937.189456,4354.512768 7893.671145,4331.148481 7876.561505,4361.157314"/>
    <poly id="1041448613" type="landuse.grass" color="194,194,130" fill="1" layer="-3.00" shape="7852.796080,4404.178036 7896.327375,4426.600978 7913.423824,4397.533385 7869.905650,4374.158099 7852.796080,4404.178036"/>
    <poly id="1041448614" type="leisure.pitch" color="207,245,201" fill="1" layer="-2.00" shape="7668.778806,4199.145553 7711.965247,4222.663043 7728.430077,4192.773712 7685.253669,4169.245130 7668.778806,4199.145553"/>
    <poly id="1041448615" type="leisure.garden" color="207,245,201" fill="1" layer="-2.00" shape="8057.727046,4061.147389 7932.674601,3994.405090 7928.897726,3991.978636 7894.667668,3975.222617 7712.206014,3874.741071 7715.734873,3869.913419 7730.593692,3866.473774 7861.602609,3931.616922 8044.389512,4012.235478 8047.388163,4003.375357 8058.708609,4010.665865 8057.727046,4061.147389"/>
    <poly id="1041448616" type="landuse.grass" color="194,194,130" fill="1" layer="-3.00" shape="7989.031122,4298.550787 7631.273443,4106.480762 7640.737223,4090.510215 7999.733287,4282.584554 7989.031122,4298.550787"/>
    <poly id="1041448617" type="landuse.grass" color="194,194,130" fill="1" layer="-3.00" shape="7588.952375,4095.258103 7563.239511,4081.132982 7581.679398,4047.451652 7609.126856,4060.596907 7588.952375,4095.258103"/>
    <poly id="1041448618" type="landuse.grass" color="194,194,130" fill="1" layer="-3.00" shape="7844.827889,4541.199408 7921.823667,4399.078049 7932.455348,4404.527971 7939.347703,4417.606440 7939.352578,4492.741177 7939.284640,4513.426535 7873.321488,4538.823401 7846.797082,4545.391702 7844.827889,4541.199408"/>
    <poly id="1041448619" type="natural.scrub" color="140,196,107" fill="1" layer="-4.00" shape="8071.254938,4376.170827 8063.052399,4385.013805 8059.801373,4394.116714 8058.775700,4402.972258 8049.572131,4416.252482 8009.432665,4421.535400 7987.383235,4423.190377 7967.642529,4399.228548 7956.293054,4388.604845 7950.425186,4363.946696 7952.693745,4353.611360 7959.937747,4333.193202 7968.149965,4321.393530 8071.254938,4376.170827"/>
    <poly id="1041448620" type="natural.scrub" color="140,196,107" fill="1" layer="-4.00" shape="8095.836629,4281.173450 8127.560466,4273.149980 8129.343294,4260.587266 8136.624980,4228.840979 8143.009644,4169.994516 8146.298992,4149.308717 8135.899332,4149.772724 8125.475036,4154.655043 8104.544215,4195.481023 8085.356695,4229.657515 8074.621922,4255.479123 8063.421502,4272.938599 8061.664738,4277.605894 8084.193810,4280.149529 8091.126663,4280.914308 8095.836629,4281.173450"/>
    <poly id="1041448621" type="natural.tree_row" color="140,196,107" fill="0" layer="-4.00" shape="8103.138284,4096.754807 8150.136341,4008.298459"/>
    <poly id="1041448622" type="natural.tree_row" color="140,196,107" fill="0" layer="-4.00" shape="8094.031655,4074.433541 8114.937225,4038.258397"/>
    <poly id="1041448623" type="natural.tree_row" color="140,196,107" fill="0" layer="-4.00" shape="8119.838901,4026.193208 8132.593707,4004.486624"/>
    <poly id="1041448624" type="natural.tree_row" color="140,196,107" fill="0" layer="-4.00" shape="8077.306181,4070.092935 8097.674393,4032.022401"/>
    <poly id="1041448625" type="natural.tree_row" color="140,196,107" fill="0" layer="-4.00" shape="8104.747313,4017.816075 8119.411334,3991.010820"/>
    <poly id="1041448626" type="natural.tree_row" color="140,196,107" fill="0" layer="-4.00" shape="8144.759990,4081.854041 8153.245911,4127.527622"/>
    <poly id="1041448627" type="natural.tree_row" color="140,196,107" fill="0" layer="-4.00" shape="8154.549844,4144.186694 8155.817178,4168.885115 8154.394799,4191.171680 8153.238592,4212.108138 8151.569254,4226.874879 8148.282308,4243.784572 8142.797272,4267.929182 8135.710577,4289.388687 8126.443850,4315.669119 8122.909660,4322.102329 8102.156701,4312.100841 8066.044176,4292.647261 8039.629979,4277.788042 7998.659044,4257.244512 7743.968146,4120.015296 7568.514190,4025.460822"/>
    <poly id="1041448628" type="natural.tree_row" color="140,196,107" fill="0" layer="-4.00" shape="8141.776758,4333.171772 8153.488858,4300.986089 8162.502475,4269.068351 8169.401098,4225.316979 8174.108961,4189.631070 8174.447809,4166.266786 8173.217760,4130.284436 8163.461071,4060.975480 8150.598957,4029.782863"/>
    <poly id="1041448629" type="natural.tree_row" color="140,196,107" fill="0" layer="-4.00" shape="8239.960135,4195.750887 8317.465412,4190.370874"/>
    <poly id="1041448630" type="natural.scrub" color="140,196,107" fill="1" layer="-4.00" shape="8232.656825,4364.887863 8248.315189,4363.057117 8262.910148,4360.148726 8269.948136,4353.461376 8273.773692,4341.126910 8275.169582,4326.901883 8279.557108,4305.965049 8285.278320,4289.606050 8283.696840,4277.785227 8273.742688,4268.361828 8257.276906,4267.764746 8238.093622,4270.126438 8228.632142,4273.040751 8226.979894,4285.659254 8223.429691,4296.920498 8211.539684,4300.646247 8204.246790,4302.227830 8203.128631,4311.625667 8206.047458,4326.939099 8204.379866,4341.163234 8207.053806,4351.381977 8215.382938,4362.139869 8232.656825,4364.887863"/>
    <poly id="1041448631" type="natural.scrub" color="140,196,107" fill="1" layer="-4.00" shape="8095.483248,4370.071559 8069.872156,4358.979965 8042.655464,4343.320791 8021.639560,4330.627664 8028.158635,4316.419475 8043.097834,4291.497562 8118.281647,4333.625813 8095.483248,4370.071559"/>
    <poly id="1041448632" type="natural.tree_row" color="140,196,107" fill="0" layer="-4.00" shape="8014.091689,4327.114632 7417.378842,4008.049013"/>
    <poly id="1041448633" type="natural.tree_row" color="140,196,107" fill="0" layer="-4.00" shape="8035.819972,4288.516942 7612.408665,4060.507941"/>
    <poly id="1041448634" type="natural.tree_row" color="140,196,107" fill="0" layer="-4.00" shape="7612.408665,4060.507941 7438.296627,3967.576322"/>
    <poly id="1041448635" type="natural.tree_row" color="140,196,107" fill="0" layer="-4.00" shape="7700.668875,3819.667401 7717.508769,3789.114870"/>
    <poly id="1041448636" type="natural.tree_row" color="140,196,107" fill="0" layer="-4.00" shape="7737.058485,3838.046723 8051.931422,3987.034538"/>
    <poly id="1041448637" type="natural.tree_row" color="140,196,107" fill="0" layer="-4.00" shape="7684.083271,3855.602572 7693.048754,3838.168715"/>
    <poly id="1041448638" type="natural.tree_row" color="140,196,107" fill="0" layer="-4.00" shape="7668.729961,3844.002653 7677.692792,3827.377154"/>
    <poly id="1041448639" type="natural.tree_row" color="140,196,107" fill="0" layer="-4.00" shape="7651.463599,3841.798030 7662.868957,3820.086616"/>
    <poly id="1041448640" type="leisure.garden" color="207,245,201" fill="1" layer="-2.00" shape="8432.297565,5093.520806 8482.797616,5071.530240 8502.050658,5063.001113 8524.092699,5054.204454 8538.320467,5046.500251 8552.878941,5027.147666 8541.266296,4999.125837 8546.913485,4977.805684 8565.056839,4967.058216 8579.544407,4965.999122 8579.290174,4960.738282 8502.532775,4918.081643 8492.564028,4898.104813 8475.913708,4880.586275 8447.203789,4881.598221 8430.447504,4895.960468 8421.480898,4910.614369 8399.434099,4920.795389 8381.862816,4925.997070 8364.315418,4924.000972 8348.990573,4925.611206 8335.574343,4937.481995 8320.262358,4935.216522 8313.002448,4920.863150 8283.736684,4952.990592 8277.100549,4950.875702 8241.596287,5049.391343 8280.534645,5068.910175 8380.432616,5105.263889 8398.541628,5104.770302 8414.437278,5100.947289 8432.297565,5093.520806"/>
    <poly id="1041448641" type="natural.tree_row" color="140,196,107" fill="0" layer="-4.00" shape="8745.204569,4759.983988 8885.616994,4832.411033 8891.539346,4837.259024 8899.065080,4847.217360"/>
    <poly id="1041448642" type="natural.tree_row" color="140,196,107" fill="0" layer="-4.00" shape="8766.527768,4761.661002 8894.267475,4828.143474 8902.879377,4838.371225 8906.082400,4846.709376 8908.492079,4854.502255"/>
    <poly id="1041448643" type="natural.tree_row" color="140,196,107" fill="0" layer="-4.00" shape="8800.927110,4645.790559 8910.062958,4707.371677 8913.029548,4708.190013"/>
    <poly id="1041448644" type="leisure.garden" color="207,245,201" fill="1" layer="-2.00" shape="8698.260712,4708.268078 8550.709546,4629.784118 8586.169621,4560.625411 8737.102430,4639.397890 8698.260712,4708.268078"/>
    <poly id="1041448645" type="natural.water" color="181,209,209" fill="1" layer="-4.00" shape="5687.914494,4944.071024 5626.719725,4830.154241 5722.588331,4863.817887 5723.737797,4869.624053 5696.683016,4940.322262 5687.914494,4944.071024"/>
    <poly id="1046940728" type="amenity.parking" color="184,184,179" fill="1" layer="-1.00" shape="8539.852829,4631.586198 8581.716033,4549.913413 8973.988347,4749.566687 8928.697812,4841.204174 8539.852829,4631.586198"/>
    <poly id="145574903" type="amenity.fuel" color="237,199,199" fill="1" layer="-1.00" shape="4823.695547,4202.672567 4831.529670,4218.210605 4801.386934,4233.234062 4793.552786,4217.696041 4823.695547,4202.672567"/>
    <poly id="155013306" type="leisure.sports_centre" color="207,245,201" fill="1" layer="-2.00" shape="8447.796719,3918.313783 8450.195853,3926.383369 8448.445908,3965.312516 8433.266170,3983.522558 8415.778783,4126.846158 8396.258753,4151.752469 8385.477827,4227.704118 8345.512004,4392.978790 8303.916250,4479.293024 8331.953004,4493.349775 8328.858212,4531.200356 8229.166577,4714.250182 8195.905724,4730.795039 8008.004659,4730.175574 7985.005832,4711.540486 7986.010461,4604.982014 7978.490112,4593.141701 7751.164088,4591.322156 7751.220296,4574.136035 7558.448497,4575.655231 7558.355827,4604.114202 7496.261772,4603.912149 7462.794399,4600.580934 7426.113420,4591.868652 7380.265207,4576.150341 7258.930709,4527.432018 7277.987945,4476.743162 7276.764257,4438.070048 7245.760947,4425.888440 7249.574617,4413.819428 7101.263722,4358.293680 7156.198955,4219.064779 7170.698833,4042.830364 7157.692171,3821.692258 7153.188776,3738.603359 7154.754152,3593.444209 7370.119191,3579.335045 7374.108752,3609.379662 7396.897823,3631.456854 7422.843573,3648.583342 7530.529620,3699.141068 8117.428750,3966.454008 8130.409107,3961.834804 8138.927982,3963.989041 8149.095276,3945.518517 8182.444638,3951.508691 8218.990596,3952.736768 8258.688784,3950.453950 8314.233981,3941.203021 8413.489296,3921.964922 8447.796719,3918.313783"/>
    <poly id="155013306#1" type="sport.equestrian" color="79,230,125" fill="1" layer="-2.00" shape="8447.796719,3918.313783 8450.195853,3926.383369 8448.445908,3965.312516 8433.266170,3983.522558 8415.778783,4126.846158 8396.258753,4151.752469 8385.477827,4227.704118 8345.512004,4392.978790 8303.916250,4479.293024 8331.953004,4493.349775 8328.858212,4531.200356 8229.166577,4714.250182 8195.905724,4730.795039 8008.004659,4730.175574 7985.005832,4711.540486 7986.010461,4604.982014 7978.490112,4593.141701 7751.164088,4591.322156 7751.220296,4574.136035 7558.448497,4575.655231 7558.355827,4604.114202 7496.261772,4603.912149 7462.794399,4600.580934 7426.113420,4591.868652 7380.265207,4576.150341 7258.930709,4527.432018 7277.987945,4476.743162 7276.764257,4438.070048 7245.760947,4425.888440 7249.574617,4413.819428 7101.263722,4358.293680 7156.198955,4219.064779 7170.698833,4042.830364 7157.692171,3821.692258 7153.188776,3738.603359 7154.754152,3593.444209 7370.119191,3579.335045 7374.108752,3609.379662 7396.897823,3631.456854 7422.843573,3648.583342 7530.529620,3699.141068 8117.428750,3966.454008 8130.409107,3961.834804 8138.927982,3963.989041 8149.095276,3945.518517 8182.444638,3951.508691 8218.990596,3952.736768 8258.688784,3950.453950 8314.233981,3941.203021 8413.489296,3921.964922 8447.796719,3918.313783"/>
    <poly id="155032459" type="building.yes" color="255,230,230" fill="1" layer="-1.00" shape="7729.076975,3923.996378 7718.405589,3921.314908 7707.809011,3920.383326 7695.081959,3921.449123 7682.104721,3925.149642 7669.823400,3931.521192 7658.155344,3941.216846 7649.006571,3953.157603 7642.466515,3967.698106 7639.640381,3982.383609 7639.820840,3994.952779 7642.526839,4007.840248 7646.541055,4017.753177 7651.777108,4026.485213 7657.211018,4033.191422 7663.031006,4038.802601 7668.543391,4043.050722 7677.103142,4048.106095 7846.971887,4135.778037 7854.948820,4140.488333 7864.790687,4144.363150 7876.540076,4146.693918 7887.823595,4146.819514 7897.522088,4145.301019 7908.405301,4141.649205 7918.338333,4136.144982 7927.008239,4129.064162 7934.071361,4120.837485 7939.983025,4110.746658 7943.812917,4100.084241 7945.640976,4089.027672 7945.358473,4076.967544 7943.168095,4066.551124 7939.584653,4057.337156 7934.389352,4048.516549 7928.293377,4041.154708 7921.307887,4034.919462 7913.654077,4029.889053 7759.676075,3936.886467 7745.024322,3929.352778 7729.076975,3923.996378"/>
    <poly id="155032459#1" type="leisure.arena" color="207,245,201" fill="1" layer="-2.00" shape="7729.076975,3923.996378 7718.405589,3921.314908 7707.809011,3920.383326 7695.081959,3921.449123 7682.104721,3925.149642 7669.823400,3931.521192 7658.155344,3941.216846 7649.006571,3953.157603 7642.466515,3967.698106 7639.640381,3982.383609 7639.820840,3994.952779 7642.526839,4007.840248 7646.541055,4017.753177 7651.777108,4026.485213 7657.211018,4033.191422 7663.031006,4038.802601 7668.543391,4043.050722 7677.103142,4048.106095 7846.971887,4135.778037 7854.948820,4140.488333 7864.790687,4144.363150 7876.540076,4146.693918 7887.823595,4146.819514 7897.522088,4145.301019 7908.405301,4141.649205 7918.338333,4136.144982 7927.008239,4129.064162 7934.071361,4120.837485 7939.983025,4110.746658 7943.812917,4100.084241 7945.640976,4089.027672 7945.358473,4076.967544 7943.168095,4066.551124 7939.584653,4057.337156 7934.389352,4048.516549 7928.293377,4041.154708 7921.307887,4034.919462 7913.654077,4029.889053 7759.676075,3936.886467 7745.024322,3929.352778 7729.076975,3923.996378"/>
    <poly id="155032459#2" type="sport.equestrian" color="79,230,125" fill="1" layer="-2.00" shape="7729.076975,3923.996378 7718.405589,3921.314908 7707.809011,3920.383326 7695.081959,3921.449123 7682.104721,3925.149642 7669.823400,3931.521192 7658.155344,3941.216846 7649.006571,3953.157603 7642.466515,3967.698106 7639.640381,3982.383609 7639.820840,3994.952779 7642.526839,4007.840248 7646.541055,4017.753177 7651.777108,4026.485213 7657.211018,4033.191422 7663.031006,4038.802601 7668.543391,4043.050722 7677.103142,4048.106095 7846.971887,4135.778037 7854.948820,4140.488333 7864.790687,4144.363150 7876.540076,4146.693918 7887.823595,4146.819514 7897.522088,4145.301019 7908.405301,4141.649205 7918.338333,4136.144982 7927.008239,4129.064162 7934.071361,4120.837485 7939.983025,4110.746658 7943.812917,4100.084241 7945.640976,4089.027672 7945.358473,4076.967544 7943.168095,4066.551124 7939.584653,4057.337156 7934.389352,4048.516549 7928.293377,4041.154708 7921.307887,4034.919462 7913.654077,4029.889053 7759.676075,3936.886467 7745.024322,3929.352778 7729.076975,3923.996378"/>
    <poly id="159446423" type="building.roof" color="255,230,230" fill="1" layer="-1.00" shape="7711.861618,4904.345463 7731.433544,4884.399347 7731.381008,4875.839241 7711.716284,4856.418217 7711.861618,4904.345463"/>
    <poly id="159446424" type="building.roof" color="255,230,230" fill="1" layer="-1.00" shape="7777.753454,4921.625465 7758.179161,4902.293254 7749.382217,4902.231257 7729.479474,4921.766541 7777.753454,4921.625465"/>
    <poly id="159446425" type="building.roof" color="255,230,230" fill="1" layer="-1.00" shape="7758.236414,4857.101860 7777.505467,4837.475955 7730.519584,4837.610174 7750.334747,4857.197822 7758.236414,4857.101860"/>
    <poly id="159453474" type="amenity.library" color="237,199,199" fill="1" layer="-1.00" shape="8017.068461,5309.833966 8016.740367,5170.980229 8154.775402,5170.671131 8155.092083,5309.502711 8072.265813,5309.705684 8017.068461,5309.833966"/>
    <poly id="159453474#1" type="building.yes" color="255,230,230" fill="1" layer="-1.00" shape="8017.068461,5309.833966 8016.740367,5170.980229 8154.775402,5170.671131 8155.092083,5309.502711 8072.265813,5309.705684 8017.068461,5309.833966"/>
    <poly id="159453475" type="amenity.parking" color="184,184,179" fill="1" layer="-1.00" shape="7530.707584,4922.070475 7513.650293,4939.555633 7513.897398,5018.290101 7608.176071,5019.195148 7607.797070,4811.286091 7560.982399,4811.366092 7533.519211,4883.919825 7530.707584,4922.070475"/>
    <poly id="159455900" type="amenity.parking" color="184,184,179" fill="1" layer="-1.00" shape="7416.034324,4735.571859 7364.280625,4715.980795 7381.558489,4670.856347 7370.459737,4666.656664 7375.383170,4653.816127 7381.907716,4656.284562 7399.368435,4610.684563 7455.676578,4632.006964 7416.034324,4735.571859"/>
    <poly id="159457896" type="landuse.grass" color="194,194,130" fill="1" layer="-3.00" shape="7618.271286,4840.266767 7612.997021,4840.260642 7612.747249,4984.770990 7617.628878,4984.786909 7617.927531,5022.836957 7608.052717,5023.070524 7513.396904,5023.625973 7453.885185,5031.582690 7486.446819,4950.961606 7489.199376,4937.128492 7494.142475,4927.532637 7500.113731,4920.575657 7509.907020,4914.483783 7517.755753,4912.084189 7522.424668,4912.520179 7528.154302,4914.864292 7530.707584,4922.070475 7513.650293,4939.555633 7513.897398,5018.290101 7608.176071,5019.195148 7607.797070,4811.286091 7607.738098,4773.801591 7610.481555,4768.982424 7612.363781,4768.988561 7612.409140,4792.121565 7619.072516,4792.110072 7618.271286,4840.266767"/>
    <poly id="159457898" type="leisure.park" color="207,245,201" fill="1" layer="-2.00" shape="7636.369576,5333.657130 7636.420713,5302.562465 7636.514337,5252.277291 7636.553082,5231.148880 7636.648647,5174.097713 7636.669200,5161.628843 7636.770670,5105.851170 7636.794655,5092.330316 7636.883532,5043.495788 7636.985673,4981.339701 7637.015920,4962.813578 7637.070677,4933.690049 7637.105981,4913.613631 7637.168012,4879.174775 7637.212274,4856.352122 7637.216276,4848.954936 7637.332476,4785.569734 7637.336898,4781.129215 7637.363392,4769.922767 7680.705114,4769.997791 7680.688709,4778.103650 7680.631382,4811.069724 7680.554466,4853.116130 7680.501294,4884.808751 7680.395503,4941.859867 7680.388727,4950.098643 7680.326800,4984.471063 7680.313467,4991.635674 7680.240399,5029.418745 7680.165373,5077.046291 7680.056818,5134.939010 7680.032789,5148.459866 7679.951137,5198.113876 7679.877951,5235.930177 7679.837448,5260.657523 7679.818263,5272.694527 7679.709487,5333.732178 7652.473575,5333.687540 7636.369576,5333.657130"/>
    <poly id="159457900" type="amenity.parking" color="184,184,179" fill="1" layer="-1.00" shape="7769.530391,4696.969499 7784.918731,4697.540321 7784.897250,4741.004335 7925.149389,4741.198380 7946.214496,4720.360507 7946.805649,4705.867035 7873.326406,4706.124154 7873.374502,4697.597599 7956.718207,4697.284300 7956.863275,4613.313260 7761.692321,4612.983433 7761.564848,4688.870745 7765.216566,4692.581292 7769.530391,4696.969499"/>
    <poly id="159738204" type="building.residential" color="255,230,230" fill="1" layer="-1.00" shape="7361.964774,4778.317917 7385.629874,4787.264650 7392.258883,4769.922676 7389.795849,4768.995573 7391.308486,4765.025040 7393.771521,4765.952144 7400.908205,4747.260836 7377.253109,4738.314109 7370.106353,4757.016470 7375.213355,4758.948772 7373.700757,4762.908232 7368.593757,4760.975931 7361.964774,4778.317917"/>
    <poly id="159738205" type="building.residential" color="255,230,230" fill="1" layer="-1.00" shape="7403.061074,4825.159858 7412.035346,4801.613186 7394.583025,4795.045248 7393.659175,4797.478453 7389.668044,4795.981636 7390.601995,4793.537390 7371.792518,4786.444617 7362.818307,4809.991314 7381.627791,4817.073002 7383.566757,4811.996486 7387.557884,4813.493301 7385.618881,4818.580890 7403.061074,4825.159858"/>
    <poly id="159738206" type="building.residential" color="255,230,230" fill="1" layer="-1.00" shape="7439.868320,4763.809529 7416.121900,4755.106057 7409.663748,4772.515017 7412.126888,4773.408903 7410.654471,4777.390637 7408.191367,4776.485678 7401.235613,4795.255085 7424.981936,4803.969606 7431.937719,4785.200210 7426.810425,4783.323189 7428.282846,4779.341457 7433.420207,4781.218511 7439.868320,4763.809529"/>
    <poly id="166533026" type="leisure.sports_centre" color="207,245,201" fill="1" layer="-2.00" shape="6958.542877,5112.946113 7008.365917,5131.654619 7016.776931,5123.354291 7037.506905,5071.540958 7039.470160,5052.611342 6987.733310,5034.262006 6978.947392,5043.325228 6957.820510,5099.688639 6958.542877,5112.946113"/>
    <poly id="166533035" type="amenity.parking" color="184,184,179" fill="1" layer="-1.00" shape="6687.945259,5038.661296 6739.253585,5058.934920 6799.941969,5082.538707 6886.254481,5116.091543 6894.956010,5092.510443 6818.803632,5063.862486 6812.235091,5068.879962 6720.006044,5034.599994 6727.279518,5029.462916 6689.532312,5014.459385 6682.581036,5019.564291 6687.945259,5038.661296"/>
    <poly id="166533037" type="leisure.track" color="207,245,201" fill="1" layer="-2.00" shape="6973.841874,5037.816293 6961.347631,5070.155485 6950.203987,5101.934271 6949.864652,5116.705424 6955.013607,5130.619388 6969.251895,5144.385380 6989.617608,5149.456125 7006.006179,5145.566603 7021.106158,5132.371093 7033.591083,5102.955364 7048.303748,5066.271433 7048.295032,5047.091850 7041.079592,5031.033986 7030.427273,5022.661251 7017.964973,5016.862861 7003.786547,5015.754190 6993.308752,5018.832195 6978.851536,5029.305686 6973.841874,5037.816293"/>
    <poly id="178774188" type="landuse.residential" color="235,235,227" fill="1" layer="-3.00" shape="5344.059766,6171.788455 5364.813041,6165.130986 5382.313418,6162.405690 5406.120148,6160.984497 5434.977472,6147.143312 5438.975002,6149.758013 5465.782037,6141.502721 5490.346193,6136.020002 5517.110813,6131.717969 5544.016398,6130.638857 5551.697513,6117.064310 5509.603901,6040.625048 5474.109057,5971.670041 5470.427288,5971.071713 5460.687205,5954.076681 5456.389473,5947.640639 5449.082317,5934.750409 5442.366100,5919.536552 5438.000944,5905.625605 5429.818026,5889.521317 5430.867338,5885.438399 5412.603692,5848.539811 5383.097966,5788.805825 5367.989786,5779.401832 5252.865129,5836.352008 5193.837876,5865.116395 5190.883707,5870.079349 5186.460154,5875.026701 5179.475475,5878.238676 5175.716052,5879.965652 5164.837636,5879.500266 5041.767308,5941.831679 4992.893375,5964.925204 4988.151121,5978.653031 5056.813976,6115.390627 5111.008417,6224.167461 5127.006864,6231.968240 5234.906416,6225.568024 5238.007867,6221.779339 5270.504792,6218.812276 5283.616664,6206.428160 5301.314007,6195.309551 5315.400796,6186.627074 5322.763208,6181.644557 5334.918254,6176.023524 5344.059766,6171.788455"/>
    <poly id="216047546" type="building.yes" color="255,230,230" fill="1" layer="-1.00" shape="7069.184385,4608.288482 7070.330496,4608.712971 7074.137898,4598.526409 7052.542660,4590.550303 7049.446023,4598.823418 7031.168468,4592.076125 7003.704595,4665.605352 7042.431043,4679.915257 7069.184385,4608.288482"/>
    <poly id="216047548" type="building.yes" color="255,230,230" fill="1" layer="-1.00" shape="7019.558790,4574.553503 7018.309976,4577.893726 7052.542660,4590.550303 7074.137898,4598.526409 7075.386688,4595.197265 7106.432335,4606.658838 7117.783613,4576.276134 7086.737905,4564.814537 7030.899795,4544.181771 7019.558790,4574.553503"/>
    <poly id="216048787" type="building.yes" color="255,230,230" fill="1" layer="-1.00" shape="7204.398819,4604.151140 7210.263358,4589.718981 7182.829523,4578.811437 7189.810446,4561.536948 7199.009625,4555.553667 7226.841209,4589.783619 7238.810148,4580.155015 7202.316248,4535.277436 7177.744713,4551.265950 7162.910376,4587.949340 7176.873491,4593.531227 7177.025688,4593.155214 7204.398819,4604.151140"/>
    <poly id="216048788" type="building.yes" color="255,230,230" fill="1" layer="-1.00" shape="7272.095096,4636.793600 7266.608735,4652.544721 7294.358756,4662.102478 7289.895367,4675.885793 7289.664757,4675.608205 7277.554519,4685.369192 7250.916503,4649.437644 7237.406670,4659.349171 7264.505706,4695.902308 7275.042765,4708.826117 7300.201810,4688.532035 7312.443223,4650.699804 7272.095096,4636.793600"/>
    <poly id="216048790" type="building.yes" color="255,230,230" fill="1" layer="-1.00" shape="7289.533067,4598.114420 7293.019099,4597.084780 7295.826129,4609.917144 7252.040075,4619.475999 7255.083661,4633.870503 7299.059732,4624.677705 7299.079505,4624.788505 7314.561156,4621.439021 7307.449181,4588.992364 7281.277276,4564.512418 7248.008541,4593.096619 7257.886354,4604.479044 7282.302937,4583.495961 7286.286904,4587.229597 7289.533067,4598.114420"/>
    <poly id="216049235" type="building.residential" color="255,230,230" fill="1" layer="-1.00" shape="7528.726246,4797.884111 7504.979940,4789.180481 7498.521688,4806.589400 7500.984817,4807.483303 7499.512377,4811.465028 7497.049285,4810.560052 7490.093423,4829.329416 7513.839631,4838.044095 7520.795522,4819.274742 7515.668252,4817.397687 7517.140697,4813.415964 7522.278033,4815.293052 7528.726246,4797.884111"/>
    <poly id="216049236" type="building.residential" color="255,230,230" fill="1" layer="-1.00" shape="7490.695145,4864.058337 7499.669547,4840.511721 7482.217318,4833.943668 7481.293453,4836.376867 7477.302343,4834.880024 7478.236308,4832.435784 7459.426930,4825.342887 7450.452589,4848.889528 7469.261975,4855.971340 7471.200968,4850.894837 7475.192074,4852.391678 7473.253043,4857.479254 7490.695145,4864.058337"/>
    <poly id="216049238" type="building.residential" color="255,230,230" fill="1" layer="-1.00" shape="7448.395749,4812.782752 7472.060733,4821.729639 7478.689839,4804.387705 7476.226816,4803.460586 7477.739475,4799.490063 7480.202498,4800.417182 7487.339285,4781.725917 7463.684305,4772.779037 7456.537446,4791.481355 7461.644422,4793.413689 7460.131803,4797.373141 7455.024828,4795.440806 7448.395749,4812.782752"/>
    <poly id="216052354" type="building.yes" color="255,230,230" fill="1" layer="-1.00" shape="7550.681378,4639.491665 7540.959818,4635.850008 7542.138839,4632.343500 7530.435165,4628.451779 7527.894220,4635.995738 7523.872714,4634.543078 7519.840837,4645.559312 7528.919359,4648.844505 7527.954636,4651.454746 7551.228601,4660.001843 7552.244052,4657.269958 7559.804477,4659.996546 7563.826354,4648.969217 7560.377902,4647.728811 7563.069665,4640.240718 7551.849507,4636.239816 7550.681378,4639.491665"/>
    <poly id="216052357" type="building.yes" color="255,230,230" fill="1" layer="-1.00" shape="7551.368764,4697.331567 7555.255049,4687.754441 7558.753782,4689.006083 7562.938391,4677.458822 7555.408100,4674.754477 7556.971124,4670.784127 7545.983324,4666.529292 7542.481581,4675.476474 7539.877947,4674.449223 7530.734240,4697.386209 7533.458475,4698.469219 7530.545445,4705.912304 7541.523151,4710.167094 7542.852788,4706.771812 7550.322166,4709.630983 7554.605830,4698.571282 7551.368764,4697.331567"/>