<?xml version="1.0" encoding="UTF-8"?>

<!-- generated on 2022-05-18 13:11:34 by Eclipse SUMO duarouter Version 1.13.0
<configuration xmlns:xsi="http://www.w3.org/2001/XMLSchema-instance" xsi:noNamespaceSchemaLocation="http://sumo.dlr.de/xsd/duarouterConfiguration.xsd">

    <input>
        <net-file value="C:\Users\abdel\Sumo\2022-05-18-13-10-58\ec.net.xml"/>
        <route-files value="C:\Users\abdel\Sumo\2022-05-18-13-10-58\ec.passenger.trips.xml"/>
    </input>

    <output>
        <output-file value="C:\Users\abdel\Sumo\2022-05-18-13-10-58\ec.passenger.trips.xml.tmp"/>
        <write-trips value="true"/>
    </output>

    <time>
        <begin value="0"/>
        <end value="3600"/>
    </time>

    <report>
        <no-warnings value="true"/>
        <ignore-errors value="true"/>
        <no-step-log value="true"/>
    </report>

</configuration>
-->

<routes xmlns:xsi="http://www.w3.org/2001/XMLSchema-instance" xsi:noNamespaceSchemaLocation="http://sumo.dlr.de/xsd/routes_file.xsd">
    <vType id="veh_passenger" vClass="passenger"/>
    <trip id="veh0" type="veh_passenger" depart="0.00" departLane="best" from="479751369#4" to="-159455892#6"/>
    <trip id="veh1" type="veh_passenger" depart="0.90" departLane="best" departSpeed="max" from="1036346145" to="100646295#1"/>
    <trip id="veh2" type="veh_passenger" depart="1.80" departLane="best" from="486825027#0" to="479797313#7"/>
    <trip id="veh3" type="veh_passenger" depart="2.69" departLane="best" from="665453544" to="-320755659#0"/>
    <trip id="veh5" type="veh_passenger" depart="4.49" departLane="best" from="100646220#1" to="235424958#4"/>
    <trip id="veh6" type="veh_passenger" depart="5.39" departLane="best" from="-155033028#1" to="-623891502#0"/>
    <trip id="veh7" type="veh_passenger" depart="6.28" departLane="best" from="479797258#4" to="25931028#0"/>
    <trip id="veh8" type="veh_passenger" depart="7.18" departLane="best" from="100646245#3" to="321071861#2"/>
    <trip id="veh10" type="veh_passenger" depart="8.98" departLane="best" from="1041521602" to="-480276564"/>
    <trip id="veh11" type="veh_passenger" depart="9.88" departLane="best" from="773876919#5" to="1041187875-AddedOnRampEdge"/>
    <trip id="veh13" type="veh_passenger" depart="11.67" departLane="best" from="623474397#3" to="321073948"/>
    <trip id="veh14" type="veh_passenger" depart="12.57" departLane="best" from="61163715#4" to="481854591#1"/>
    <trip id="veh15" type="veh_passenger" depart="13.47" departLane="best" departSpeed="max" from="25931033" to="854001005#0"/>
    <!--<trip id="veh16" type="veh_passenger" depart="14.36" departLane="best" from="1042709695" to="25931028#4"/>-->
    <trip id="veh17" type="veh_passenger" depart="15.26" departLane="best" departSpeed="max" from="622809059#0" to="475316653#4"/>
    <trip id="veh18" type="veh_passenger" depart="16.16" departLane="best" from="625413783#2" to="320755665"/>
    <trip id="veh22" type="veh_passenger" depart="19.75" departLane="best" from="-379986746#0" to="1036341357#0"/>
    <trip id="veh24" type="veh_passenger" depart="21.55" departLane="best" from="1042693362#0" to="-775380332#0"/>
    <trip id="veh25" type="veh_passenger" depart="22.45" departLane="best" from="1036341360#1" to="743386900"/>
    <trip id="veh26" type="veh_passenger" depart="23.34" departLane="best" from="479797253#1" to="379986751"/>
    <trip id="veh28" type="veh_passenger" depart="25.14" departLane="best" departSpeed="max" from="-480252897#2" to="1042449170"/>
    <trip id="veh29" type="veh_passenger" depart="26.04" departLane="best" from="901285519#0" to="479621763#4"/>
    <trip id="veh31" type="veh_passenger" depart="27.83" departLane="best" departSpeed="max" from="623128861" to="491638585"/>
    <trip id="veh34" type="veh_passenger" depart="30.53" departLane="best" from="-775380332#5" to="765449928"/>
    <trip id="veh36" type="veh_passenger" depart="32.32" departLane="best" from="479797277#5" to="1042716326"/>
    <trip id="veh37" type="veh_passenger" depart="33.22" departLane="best" from="742718528#2" to="166563426#4"/>
    <trip id="veh38" type="veh_passenger" depart="34.12" departLane="best" from="1036341358#0" to="1036060565"/>
    <trip id="veh39" type="veh_passenger" depart="35.01" departLane="best" departSpeed="max" from="26234656#0" to="1036099955"/>
    <trip id="veh40" type="veh_passenger" depart="35.91" departLane="best" from="321073225#2" to="684128578#0"/>
    <trip id="veh41" type="veh_passenger" depart="36.81" departLane="best" from="156148402#2" to="100646256#0"/>
    <trip id="veh42" type="veh_passenger" depart="37.71" departLane="best" from="994962124#6" to="235424974#1"/>
    <trip id="veh44" type="veh_passenger" depart="39.50" departLane="best" from="-475316653#5" to="479613108#2"/>
    <trip id="veh45" type="veh_passenger" depart="40.40" departLane="best" from="583797089#1" to="156148413#0"/>
    <trip id="veh46" type="veh_passenger" depart="41.30" departLane="best" from="-248698662" to="1042676039"/>
    <trip id="veh47" type="veh_passenger" depart="42.20" departLane="best" from="994962124#3" to="248698674#2"/>
    <trip id="veh48" type="veh_passenger" depart="43.09" departLane="best" from="854001005#0" to="625413762#3"/>
    <trip id="veh49" type="veh_passenger" depart="43.99" departLane="best" from="-1036047409#0" to="480284576#2"/>
    <trip id="veh50" type="veh_passenger" depart="44.89" departLane="best" from="479797341#1-AddedOnRampEdge" to="255416224#2"/>
    <trip id="veh51" type="veh_passenger" depart="45.79" departLane="best" from="1036341360#0" to="479621763#7"/>
    <trip id="veh52" type="veh_passenger" depart="46.69" departLane="best" from="-475319370" to="159453447#8"/>
    <trip id="veh53" type="veh_passenger" depart="47.58" departLane="best" departSpeed="max" from="178774212#0" to="773159597#3"/>
    <trip id="veh55" type="veh_passenger" depart="49.38" departLane="best" from="248698668#12" to="-490165001#1"/>
    <trip id="veh57" type="veh_passenger" depart="51.17" departLane="best" from="1039159932#1" to="479621763#11"/>
    <trip id="veh59" type="veh_passenger" depart="52.97" departLane="best" from="491462355" to="255416245#1"/>
    <trip id="veh60" type="veh_passenger" depart="53.87" departLane="best" from="491638583#0" to="255416142#2"/>
    <trip id="veh61" type="veh_passenger" depart="54.77" departLane="best" from="-100646217#1" to="1040911960"/>
    <trip id="veh66" type="veh_passenger" depart="59.26" departLane="best" from="-256157283#0" to="216065938#0"/>
    <trip id="veh67" type="veh_passenger" depart="60.15" departLane="best" from="-248698668#10" to="491628725#1-AddedOffRampEdge"/>
    <trip id="veh68" type="veh_passenger" depart="61.05" departLane="best" from="491628725#1-AddedOffRampEdge" to="-479797283#1"/>
    <trip id="veh69" type="veh_passenger" depart="61.95" departLane="best" from="224737854#2" to="25931028#3"/>
    <trip id="veh72" type="veh_passenger" depart="64.64" departLane="best" departSpeed="max" from="25931909" to="481854591#1"/>
    <trip id="veh73" type="veh_passenger" depart="65.54" departLane="best" departSpeed="max" from="-625413768#3" to="1039159932#1"/>
    <trip id="veh74" type="veh_passenger" depart="66.44" departLane="best" from="994962124#2" to="479797239#0"/>
    <trip id="veh76" type="veh_passenger" depart="68.23" departLane="best" from="-479621745#7" to="1032262905#1"/>
    <trip id="veh77" type="veh_passenger" depart="69.13" departLane="best" from="1041504065" to="321071861#1"/>
    <trip id="veh78" type="veh_passenger" depart="70.03" departLane="best" from="1032665742" to="100646260#0"/>
    <trip id="veh79" type="veh_passenger" depart="70.93" departLane="best" from="-248698668#8" to="479621745#7"/>
    <trip id="veh81" type="veh_passenger" depart="72.72" departLane="best" from="625413768#2" to="-255416245#0"/>
    <trip id="veh83" type="veh_passenger" depart="74.52" departLane="best" departSpeed="max" from="-994875416" to="-479797308"/>
    <trip id="veh84" type="veh_passenger" depart="75.42" departLane="best" from="742727484#1" to="26234533#0"/>
    <trip id="veh85" type="veh_passenger" depart="76.31" departLane="best" from="224737852#6" to="538068606-AddedOffRampEdge"/>
    <trip id="veh86" type="veh_passenger" depart="77.21" departLane="best" from="-320758120" to="156148432#0"/>
    <trip id="veh88" type="veh_passenger" depart="79.01" departLane="best" from="481854588#3" to="479797313#0"/>
    <trip id="veh90" type="veh_passenger" depart="80.80" departLane="best" from="156148407#0" to="1041235840#1-AddedOffRampEdge"/>
    <trip id="veh91" type="veh_passenger" depart="81.70" departLane="best" from="625413783#2" to="1036062887"/>
    <trip id="veh92" type="veh_passenger" depart="82.60" departLane="best" from="-61163715#2" to="159455874#9"/>
    <trip id="veh93" type="veh_passenger" depart="83.50" departLane="best" from="159453472#0" to="1036341357#1"/>
    <trip id="veh95" type="veh_passenger" depart="85.29" departLane="best" from="166563429#6" to="625413766#0"/>
    <trip id="veh97" type="veh_passenger" depart="87.09" departLane="best" from="996026061#1" to="622873931#7"/>
    <trip id="veh98" type="veh_passenger" depart="87.99" departLane="best" from="854001000#1" to="742727471"/>
    <trip id="veh100" type="veh_passenger" depart="89.78" departLane="best" from="235427270" to="100646217#3"/>
    <!--<trip id="veh102" type="veh_passenger" depart="91.58" departLane="best" from="1042709695" to="854052895#2"/>-->
    <trip id="veh103" type="veh_passenger" depart="92.47" departLane="best" from="1036341358#1" to="538068606-AddedOffRampEdge"/>
    <trip id="veh104" type="veh_passenger" depart="93.37" departLane="best" from="178774217#1" to="156148417"/>
    <trip id="veh106" type="veh_passenger" depart="95.17" departLane="best" from="25934395#5" to="480283416#1"/>
    <trip id="veh107" type="veh_passenger" depart="96.07" departLane="best" from="-480250296#0" to="1036360487#6"/>
    <trip id="veh108" type="veh_passenger" depart="96.96" departLane="best" from="854001000#0" to="320758120"/>
    <trip id="veh109" type="veh_passenger" depart="97.86" departLane="best" departSpeed="max" from="25931909" to="490192688#5"/>
    <trip id="veh110" type="veh_passenger" depart="98.76" departLane="best" departSpeed="max" from="-234517427#4" to="320758139"/>
    <trip id="veh111" type="veh_passenger" depart="99.66" departLane="best" departSpeed="max" from="248698670#0" to="623891500#1"/>
    <trip id="veh112" type="veh_passenger" depart="100.55" departLane="best" from="-480250299#0" to="774852739#1"/>
    <trip id="veh114" type="veh_passenger" depart="102.35" departLane="best" from="323563821#1" to="479797313#4"/>
    <trip id="veh117" type="veh_passenger" depart="105.04" departLane="best" departSpeed="max" from="323563821#0" to="475316658#1"/>
    <trip id="veh118" type="veh_passenger" depart="105.94" departLane="best" from="159453449#8" to="320758139"/>
    <trip id="veh119" type="veh_passenger" depart="106.84" departLane="best" from="256157278#1" to="742727484#3"/>
    <trip id="veh120" type="veh_passenger" depart="107.74" departLane="best" from="-658095569#2" to="480276562"/>
    <trip id="veh121" type="veh_passenger" depart="108.63" departLane="best" from="1036060565" to="1042716327"/>
    <trip id="veh122" type="veh_passenger" depart="109.53" departLane="best" from="479797313#7" to="1038266651"/>
    <trip id="veh123" type="veh_passenger" depart="110.43" departLane="best" from="1040925852" to="490213894-AddedOffRampEdge"/>
    <trip id="veh124" type="veh_passenger" depart="111.33" departLane="best" departSpeed="max" from="-248698670#2" to="166563426#3"/>
    <trip id="veh125" type="veh_passenger" depart="112.23" departLane="best" from="-255416142#1" to="100646208"/>
    <trip id="veh126" type="veh_passenger" depart="113.12" departLane="best" from="1036341358#1" to="742727484#0"/>
    <trip id="veh127" type="veh_passenger" depart="114.02" departLane="best" from="1042693361#1" to="-480282281#0"/>
    <trip id="veh128" type="veh_passenger" depart="114.92" departLane="best" from="622873931#7" to="480250293#0"/>
    <trip id="veh129" type="veh_passenger" depart="115.82" departLane="best" from="475316653#6" to="854052897#4"/>
    <trip id="veh130" type="veh_passenger" depart="116.71" departLane="best" from="479797277#2" to="-100646260#1"/>
    <trip id="veh131" type="veh_passenger" depart="117.61" departLane="best" from="618364867#1" to="1038110939"/>
    <trip id="veh132" type="veh_passenger" depart="118.51" departLane="best" from="479797310#0" to="765449926#0"/>
    <trip id="veh134" type="veh_passenger" depart="120.31" departLane="best" departSpeed="max" from="-475316645#2" to="25931028#5"/>
    <trip id="veh137" type="veh_passenger" depart="123.00" departLane="best" from="479621763#12" to="1036099956#3"/>
    <trip id="veh138" type="veh_passenger" depart="123.90" departLane="best" from="235427743#0" to="696730624"/>
    <trip id="veh139" type="veh_passenger" depart="124.80" departLane="best" from="623474397#0" to="-379986688#2"/>
    <trip id="veh140" type="veh_passenger" depart="125.69" departLane="best" from="159453472#4" to="1036341355"/>
    <trip id="veh141" type="veh_passenger" depart="126.59" departLane="best" from="-100646242#1" to="491632371#2"/>
    <trip id="veh142" type="veh_passenger" depart="127.49" departLane="best" from="479621774#2" to="1036099953"/>
    <trip id="veh143" type="veh_passenger" depart="128.39" departLane="best" departSpeed="max" from="489606090" to="25931028#4"/>
    <trip id="veh144" type="veh_passenger" depart="129.28" departLane="best" from="159455874#4" to="-100646264#0"/>
    <trip id="veh145" type="veh_passenger" depart="130.18" departLane="best" from="-255416153" to="665451330#1"/>
    <trip id="veh147" type="veh_passenger" depart="131.98" departLane="best" from="622873934#0" to="320758130#1"/>
    <trip id="veh148" type="veh_passenger" depart="132.88" departLane="best" from="-479816722#1" to="-479797258#5"/>
    <trip id="veh149" type="veh_passenger" depart="133.77" departLane="best" departSpeed="max" from="1040260533" to="684128578#2"/>
    <trip id="veh150" type="veh_passenger" depart="134.67" departLane="best" from="583797089#8" to="625413762#3"/>
    <trip id="veh151" type="veh_passenger" depart="135.57" departLane="best" from="684128578#0" to="-775380332#4"/>
    <trip id="veh153" type="veh_passenger" depart="137.36" departLane="best" from="491638583#6" to="665451330#2"/>
    <trip id="veh154" type="veh_passenger" depart="138.26" departLane="best" from="156148419#1" to="475319371#0"/>
    <trip id="veh156" type="veh_passenger" depart="140.06" departLane="best" from="625418511" to="854040750"/>
    <trip id="veh160" type="veh_passenger" depart="143.65" departLane="best" from="61163710#13" to="625413783#2"/>
    <trip id="veh162" type="veh_passenger" depart="145.44" departLane="best" from="538068340#1" to="-479613101#1"/>
    <trip id="veh164" type="veh_passenger" depart="147.24" departLane="best" from="100646256#1" to="618371794"/>
    <trip id="veh165" type="veh_passenger" depart="148.14" departLane="best" from="216060954#1" to="1039133060"/>
    <trip id="veh166" type="veh_passenger" depart="149.04" departLane="best" from="583797089#7" to="1032987570#1"/>
    <trip id="veh167" type="veh_passenger" depart="149.93" departLane="best" from="-1042698679" to="-622804129#0"/>
    <trip id="veh168" type="veh_passenger" depart="150.83" departLane="best" from="1041235840#0" to="625413783#3"/>
    <trip id="veh169" type="veh_passenger" depart="151.73" departLane="best" from="479751865#1" to="1042728028#1"/>
    <trip id="veh170" type="veh_passenger" depart="152.63" departLane="best" from="854052892-AddedOffRampEdge" to="255416223#1"/>
    <trip id="veh171" type="veh_passenger" depart="153.52" departLane="best" from="764267604" to="-479621752#0"/>
    <trip id="veh172" type="veh_passenger" depart="154.42" departLane="best" from="854001002#1" to="-490165001#1"/>
    <trip id="veh173" type="veh_passenger" depart="155.32" departLane="best" from="775122579#1" to="1036114082"/>
    <trip id="veh174" type="veh_passenger" depart="156.22" departLane="best" from="-475316653#0" to="159453447#8"/>
    <trip id="veh175" type="veh_passenger" depart="157.12" departLane="best" from="481854585" to="1039159937"/>
    <trip id="veh177" type="veh_passenger" depart="158.91" departLane="best" from="123423117#1" to="320755661#1"/>
    <trip id="veh178" type="veh_passenger" depart="159.81" departLane="best" from="1036338535" to="480250299#1"/>
    <trip id="veh179" type="veh_passenger" depart="160.71" departLane="best" from="-100646220#2" to="742727470"/>
    <trip id="veh181" type="veh_passenger" depart="162.50" departLane="best" departSpeed="max" from="489606090" to="479797310#7"/>
    <trip id="veh182" type="veh_passenger" depart="163.40" departLane="best" from="1042449169#1" to="-255416229#2"/>
    <trip id="veh184" type="veh_passenger" depart="165.20" departLane="best" from="1040882903" to="623138417"/>
    <trip id="veh185" type="veh_passenger" depart="166.09" departLane="best" from="480284576#1" to="1038324580"/>
    <trip id="veh186" type="veh_passenger" depart="166.99" departLane="best" from="1040591005" to="145126347"/>
    <trip id="veh187" type="veh_passenger" depart="167.89" departLane="best" from="156148404#3" to="1036360487#5"/>
    <trip id="veh188" type="veh_passenger" depart="168.79" departLane="best" from="-479621763#5" to="156148404#2"/>
    <trip id="veh189" type="veh_passenger" depart="169.69" departLane="best" from="764267605" to="479797318#0"/>
    <trip id="veh191" type="veh_passenger" depart="171.48" departLane="best" departSpeed="max" from="1039159935" to="25931028#2"/>
    <trip id="veh192" type="veh_passenger" depart="172.38" departLane="best" from="-100646217#0" to="1036342983"/>
    <trip id="veh193" type="veh_passenger" depart="173.28" departLane="best" from="159455874#8" to="320758122#1"/>
    <trip id="veh195" type="veh_passenger" depart="175.07" departLane="best" from="166563429#4" to="100646217#3"/>
    <trip id="veh196" type="veh_passenger" depart="175.97" departLane="best" from="224737854#0" to="684135634#2"/>
    <trip id="veh197" type="veh_passenger" depart="176.87" departLane="best" from="583797089#8" to="-483726628#0"/>
    <trip id="veh199" type="veh_passenger" depart="178.66" departLane="best" from="479621758#4" to="1041187875"/>
    <trip id="veh201" type="veh_passenger" depart="180.46" departLane="best" from="479797318#4" to="1032262905#1"/>
    <trip id="veh202" type="veh_passenger" depart="181.36" departLane="best" from="-623891515#1" to="-159455892#4"/>
    <trip id="veh204" type="veh_passenger" depart="183.15" departLane="best" from="623474399#3" to="-255416251#2"/>
    <trip id="veh205" type="veh_passenger" depart="184.05" departLane="best" from="159453447#12" to="479621745#2"/>
    <trip id="veh206" type="veh_passenger" depart="184.95" departLane="best" from="-622873929#0" to="479816723#0"/>
    <trip id="veh207" type="veh_passenger" depart="185.85" departLane="best" departSpeed="max" from="245763347#0" to="1036052086#2"/>
    <trip id="veh208" type="veh_passenger" depart="186.74" departLane="best" from="479797279" to="-100646248#2"/>
    <trip id="veh210" type="veh_passenger" depart="188.54" departLane="best" departSpeed="max" from="-475316645#2" to="156148419#2"/>
    <trip id="veh211" type="veh_passenger" depart="189.44" departLane="best" from="-483796488#0" to="773876919#3"/>
    <trip id="veh214" type="veh_passenger" depart="192.13" departLane="best" from="178774219#2" to="61163710#1"/>
    <trip id="veh216" type="veh_passenger" depart="193.93" departLane="best" from="323563821#2" to="773159596#1"/>
    <trip id="veh217" type="veh_passenger" depart="194.82" departLane="best" from="665453544" to="47070283#3"/>
    <trip id="veh218" type="veh_passenger" depart="195.72" departLane="best" from="480284575" to="235424958#4"/>
    <trip id="veh219" type="veh_passenger" depart="196.62" departLane="best" from="622873931#0" to="25931028#2"/>
    <trip id="veh220" type="veh_passenger" depart="197.52" departLane="best" from="665453553" to="489629072#3"/>
    <trip id="veh222" type="veh_passenger" depart="199.31" departLane="best" from="1036079534" to="479621758#3"/>
    <trip id="veh225" type="veh_passenger" depart="202.01" departLane="best" from="-255416209#0" to="1036342983"/>
    <trip id="veh227" type="veh_passenger" depart="203.80" departLane="best" departSpeed="max" from="25931909" to="-479797345#1"/>
    <trip id="veh230" type="veh_passenger" depart="206.50" departLane="best" from="156148419#4" to="256157279"/>
    <trip id="veh233" type="veh_passenger" depart="209.19" departLane="best" from="321073225#1" to="479816717#0"/>
    <trip id="veh234" type="veh_passenger" depart="210.09" departLane="best" departSpeed="max" from="625397297" to="491628727#0"/>
    <trip id="veh235" type="veh_passenger" depart="210.98" departLane="best" from="1042716324" to="-100646252#0"/>
    <trip id="veh236" type="veh_passenger" depart="211.88" departLane="best" from="1041544550#0" to="490216931#1"/>
    <trip id="veh237" type="veh_passenger" depart="212.78" departLane="best" from="623891513" to="773159597#3"/>
    <trip id="veh238" type="veh_passenger" depart="213.68" departLane="best" from="159453449#7" to="490192688#3-AddedOnRampEdge"/>
    <trip id="veh239" type="veh_passenger" depart="214.58" departLane="best" from="25931950-AddedOffRampEdge" to="321073948"/>
    <trip id="veh241" type="veh_passenger" depart="216.37" departLane="best" departSpeed="max" from="1041504064" to="479797321"/>
    <trip id="veh243" type="veh_passenger" depart="218.17" departLane="best" from="224737849#3" to="-479797258#6"/>
    <trip id="veh245" type="veh_passenger" depart="219.96" departLane="best" from="156148397#3" to="25934381#0"/>
    <trip id="veh246" type="veh_passenger" depart="220.86" departLane="best" from="-156148407#1" to="479751358#0"/>
    <trip id="veh247" type="veh_passenger" depart="221.76" departLane="best" from="-479797279" to="166563429#5"/>
    <trip id="veh248" type="veh_passenger" depart="222.66" departLane="best" from="-216060954#0" to="1042449170"/>
    <trip id="veh249" type="veh_passenger" depart="223.55" departLane="best" departSpeed="max" from="490718877#0" to="1042449170"/>
    <trip id="veh251" type="veh_passenger" depart="225.35" departLane="best" from="1036313338" to="-25934385#0"/>
    <trip id="veh252" type="veh_passenger" depart="226.25" departLane="best" departSpeed="max" from="-1039220886" to="255416245#1"/>
    <trip id="veh253" type="veh_passenger" depart="227.15" departLane="best" from="479797258#5" to="538068339#5"/>
    <trip id="veh254" type="veh_passenger" depart="228.04" departLane="best" from="479797271" to="490216934#0"/>
    <trip id="veh255" type="veh_passenger" depart="228.94" departLane="best" from="773159597#1" to="-623891512"/>
    <trip id="veh257" type="veh_passenger" depart="230.74" departLane="best" from="-479621763#11" to="479797310#2"/>
    <trip id="veh258" type="veh_passenger" depart="231.63" departLane="best" departSpeed="max" from="267535712" to="100646248#1"/>
    <trip id="veh259" type="veh_passenger" depart="232.53" departLane="best" from="480250287#2" to="491628727#1"/>
    <trip id="veh260" type="veh_passenger" depart="233.43" departLane="best" from="-480284570" to="379986688#5"/>
    <trip id="veh261" type="veh_passenger" depart="234.33" departLane="best" departSpeed="max" from="490165001#0" to="-479621751#0"/>
    <trip id="veh263" type="veh_passenger" depart="236.12" departLane="best" from="-475316652#3" to="-159457890#2"/>
    <trip id="veh264" type="veh_passenger" depart="237.02" departLane="best" from="1040882902#0" to="479797318#0"/>
    <trip id="veh265" type="veh_passenger" depart="237.92" departLane="best" from="774852739#0" to="1042716327"/>
    <trip id="veh267" type="veh_passenger" depart="239.71" departLane="best" from="479812143#3" to="479613108#1"/>
    <!--<trip id="veh268" type="veh_passenger" depart="240.61" departLane="best" from="-379986778#0" to="491632372#1"/>-->
    <trip id="veh269" type="veh_passenger" depart="241.51" departLane="best" from="623891500#1" to="321073251"/>
    <trip id="veh270" type="veh_passenger" depart="242.41" departLane="best" from="491638590#0" to="1041521601"/>
    <trip id="veh271" type="veh_passenger" depart="243.31" departLane="best" from="159455874#5" to="1042334799"/>
    <trip id="veh272" type="veh_passenger" depart="244.20" departLane="best" from="248698674#2" to="1041286369"/>
    <trip id="veh274" type="veh_passenger" depart="246.00" departLane="best" from="-475316645#0" to="774852739#1"/>
    <trip id="veh275" type="veh_passenger" depart="246.90" departLane="best" from="479621763#6" to="622804124#1"/>
    <trip id="veh277" type="veh_passenger" depart="248.69" departLane="best" from="483726628#1" to="775380332#4"/>
    <trip id="veh278" type="veh_passenger" depart="249.59" departLane="best" from="1036341364#0" to="61163785#3"/>
    <trip id="veh279" type="veh_passenger" depart="250.49" departLane="best" from="25931907" to="216060954#3"/>
    <trip id="veh280" type="veh_passenger" depart="251.39" departLane="best" from="159455892#3" to="481854596#2"/>
    <trip id="veh281" type="veh_passenger" depart="252.28" departLane="best" from="1036341362#1" to="623474399#2"/>
    <trip id="veh282" type="veh_passenger" depart="253.18" departLane="best" from="622873931#0" to="-320755658#2"/>
    <trip id="veh283" type="veh_passenger" depart="254.08" departLane="best" from="665451328#4" to="1036052086#2"/>
    <trip id="veh284" type="veh_passenger" depart="254.98" departLane="best" from="216065940#2" to="390383583#0"/>
    <trip id="veh287" type="veh_passenger" depart="257.67" departLane="best" departSpeed="max" from="-856908280" to="584750383#1"/>
    <trip id="veh289" type="veh_passenger" depart="259.47" departLane="best" departSpeed="max" from="480250295#0" to="1036341355"/>
    <trip id="veh291" type="veh_passenger" depart="261.26" departLane="best" from="-256157283#0" to="480284575"/>
    <trip id="veh292" type="veh_passenger" depart="262.16" departLane="best" from="235427743#0" to="491628725#0"/>
    <trip id="veh293" type="veh_passenger" depart="263.06" departLane="best" from="479812143#3" to="479751374#1"/>
    <trip id="veh294" type="veh_passenger" depart="263.96" departLane="best" departSpeed="max" from="235436489#0" to="583797089#2"/>
    <trip id="veh295" type="veh_passenger" depart="264.85" departLane="best" from="-25934395#4" to="100646269#0"/>
    <trip id="veh296" type="veh_passenger" depart="265.75" departLane="best" departSpeed="max" from="479812147#0" to="1039133060"/>
    <trip id="veh298" type="veh_passenger" depart="267.55" departLane="best" from="25931028#4" to="156148419#3"/>
    <trip id="veh299" type="veh_passenger" depart="268.44" departLane="best" departSpeed="max" from="489924065" to="1040929341"/>
    <trip id="veh300" type="veh_passenger" depart="269.34" departLane="best" from="480250296#2" to="1036341350#3"/>
    <trip id="veh301" type="veh_passenger" depart="270.24" departLane="best" from="1036114082" to="-479621763#9"/>
    <trip id="veh302" type="veh_passenger" depart="271.14" departLane="best" from="-61163785#3" to="-479621763#5"/>
    <trip id="veh303" type="veh_passenger" depart="272.04" departLane="best" departSpeed="max" from="25931033" to="491628725#3"/>
    <trip id="veh304" type="veh_passenger" depart="272.93" departLane="best" from="-491638583#3" to="100646242#1"/>
    <trip id="veh307" type="veh_passenger" depart="275.63" departLane="best" from="1036360487#6" to="-475316653#0"/>
    <trip id="veh308" type="veh_passenger" depart="276.52" departLane="best" from="-622805764#1" to="1032987570#1"/>
    <trip id="veh311" type="veh_passenger" depart="279.22" departLane="best" from="854040751" to="25931028#5"/>
    <trip id="veh312" type="veh_passenger" depart="280.12" departLane="best" from="479816723#2" to="-479797258#1"/>
    <trip id="veh314" type="veh_passenger" depart="281.91" departLane="best" from="658130902" to="26234533#2"/>
    <trip id="veh315" type="veh_passenger" depart="282.81" departLane="best" from="224737850#2" to="159453472#0"/>
    <trip id="veh316" type="veh_passenger" depart="283.71" departLane="best" from="-490718877#2" to="-248698662"/>
    <trip id="veh318" type="veh_passenger" depart="285.50" departLane="best" from="618371797" to="1046628053"/>
    <trip id="veh319" type="veh_passenger" depart="286.40" departLane="best" from="-255416142#4" to="479621745#1"/>
    <trip id="veh321" type="veh_passenger" depart="288.20" departLane="best" departSpeed="max" from="267535712" to="1039133060"/>
    <trip id="veh322" type="veh_passenger" depart="289.09" departLane="best" from="994962121#3" to="-479621763#11"/>
    <trip id="veh323" type="veh_passenger" depart="289.99" departLane="best" from="491628725#1" to="379986688#1"/>
    <trip id="veh325" type="veh_passenger" depart="291.79" departLane="best" departSpeed="max" from="256157278#0" to="159455875#2"/>
    <trip id="veh326" type="veh_passenger" depart="292.69" departLane="best" from="166563429#5" to="625413762#1"/>
    <trip id="veh327" type="veh_passenger" depart="293.58" departLane="best" from="901285521" to="1039133060"/>
    <trip id="veh328" type="veh_passenger" depart="294.48" departLane="best" from="479621743#1" to="379986768"/>
    <trip id="veh329" type="veh_passenger" depart="295.38" departLane="best" from="489606084-AddedOnRampEdge" to="765467137"/>
    <trip id="veh330" type="veh_passenger" depart="296.28" departLane="best" from="-665451328#7" to="-775599627#0"/>
    <trip id="veh331" type="veh_passenger" depart="297.17" departLane="best" from="479797300#0" to="-480282280"/>
    <trip id="veh332" type="veh_passenger" depart="298.07" departLane="best" from="-480475790#0" to="-256157278#0"/>
    <trip id="veh333" type="veh_passenger" depart="298.97" departLane="best" departSpeed="max" from="-100646234" to="159455875#2"/>