<?xml version="1.0" encoding="UTF-8"?>
<!-- generated on 2022-05-18 13:11:56.165576 by ecWebWizard.py v1_13_0+0000-4b5bca80615
<configuration>
    <additional-files value="C:\Users\abdel\Sumo\2022-05-18-13-10-58\ec_stops.add.xml,C:\Users\abdel\Sumo\2022-05-18-13-10-58\ec_pt.rou.xml"/>
    <end value="3600"/>
    <net-file value="C:\Users\abdel\Sumo\2022-05-18-13-10-58\ec.net.xml"/>
    <period value="1.7273424490952098"/>
    <persontrips value="True"/>
    <route-file value="C:\Users\abdel\Sumo\2022-05-18-13-10-58\ec.pedestrian.rou.xml"/>
    <trip-attributes value="modes=&quot;public&quot;"/>
    <output-trip-file value="C:\Users\abdel\Sumo\2022-05-18-13-10-58\ec.pedestrian.trips.xml"/>
    <prefix value="ped"/>
    <vehicle-class value="pedestrian"/>
    <persontrip.walk-opposite-factor value="0.8"/>
</configuration>

-->
<routes xmlns:xsi="http://www.w3.org/2001/XMLSchema-instance" xsi:noNamespaceSchemaLocation="http://sumo.dlr.de/xsd/routes_file.xsd">
    <vType id="ped_pedestrian" vClass="pedestrian"/>
    <person id="ped0" depart="0.00" type="ped_pedestrian">
        <personTrip from="321073257#1" to="-1032950228#9" modes="public"/>
    </person>
    <person id="ped1" depart="1.73" type="ped_pedestrian">
        <personTrip from="-770708093#1" to="-573960405#0" modes="public"/>
    </person>
    <person id="ped2" depart="3.45" type="ped_pedestrian">
        <personTrip from="625382079#1" to="379986767#0" modes="public"/>
    </person>
    <person id="ped3" depart="5.18" type="ped_pedestrian">
        <personTrip from="775252894#1" to="-1046552367" modes="public"/>
    </person>
    <person id="ped4" depart="6.91" type="ped_pedestrian">
        <personTrip from="1038390121#0" to="-1032959317#2" modes="public"/>
    </person>
    <person id="ped5" depart="8.64" type="ped_pedestrian">
        <personTrip from="-480288305#0" to="1042334798" modes="public"/>
    </person>
    <person id="ped6" depart="10.36" type="ped_pedestrian">
        <personTrip from="-1032955265#5" to="-479797289" modes="public"/>
    </person>
    <person id="ped7" depart="12.09" type="ped_pedestrian">
        <personTrip from="379986690#0" to="1046698602" modes="public"/>
    </person>
    <person id="ped8" depart="13.82" type="ped_pedestrian">
        <personTrip from="-538068338#1" to="159457880#0" modes="public"/>
    </person>
    <person id="ped9" depart="15.55" type="ped_pedestrian">
        <personTrip from="761121980#0" to="-1032670004" modes="public"/>
    </person>
    <person id="ped10" depart="17.27" type="ped_pedestrian">
        <personTrip from="753802197#8" to="480267434#2" modes="public"/>
    </person>
    <person id="ped11" depart="19.00" type="ped_pedestrian">
        <personTrip from="1030895344" to="-321073253#0" modes="public"/>
    </person>
    <person id="ped12" depart="20.73" type="ped_pedestrian">
        <personTrip from="775599632" to="1030895335" modes="public"/>
    </person>
    <person id="ped13" depart="22.46" type="ped_pedestrian">
        <personTrip from="-1046565840#2" to="-1046622547" modes="public"/>
    </person>
    <person id="ped14" depart="24.18" type="ped_pedestrian">
        <personTrip from="773553565#0" to="159457891#0" modes="public"/>
    </person>
    <person id="ped15" depart="25.91" type="ped_pedestrian">
        <personTrip from="755285216#1" to="622888969#0" modes="public"/>
    </person>
    <person id="ped16" depart="27.64" type="ped_pedestrian">
        <personTrip from="1046664522" to="854052889" modes="public"/>
    </person>
    <person id="ped17" depart="29.36" type="ped_pedestrian">
        <personTrip from="1032959314#3" to="145126346#1" modes="public"/>
    </person>
    <person id="ped18" depart="31.09" type="ped_pedestrian">
        <personTrip from="772396531#7" to="216063384" modes="public"/>
    </person>
    <person id="ped19" depart="32.82" type="ped_pedestrian">
        <personTrip from="774852730#0" to="159457875#12" modes="public"/>
    </person>
    <person id="ped20" depart="34.55" type="ped_pedestrian">
        <personTrip from="480276571#1" to="-1038266647" modes="public"/>
    </person>
    <person id="ped21" depart="36.27" type="ped_pedestrian">
        <personTrip from="-574467975#0" to="-775252894#1" modes="public"/>
    </person>
    <person id="ped22" depart="38.00" type="ped_pedestrian">
        <personTrip from="-1042334798" to="-625418550#0" modes="public"/>
    </person>
    <person id="ped23" depart="39.73" type="ped_pedestrian">
        <personTrip from="-1046664522" to="-772396528" modes="public"/>
    </person>
    <person id="ped24" depart="41.46" type="ped_pedestrian">
        <personTrip from="321073252#0" to="1032950219#2" modes="public"/>
    </person>
    <person id="ped25" depart="43.18" type="ped_pedestrian">
        <personTrip from="1032950227#0" to="-480276570#2" modes="public"/>
    </person>
    <person id="ped26" depart="44.91" type="ped_pedestrian">
        <personTrip from="-753802192" to="775348299" modes="public"/>
    </person>
    <person id="ped27" depart="46.64" type="ped_pedestrian">
        <personTrip from="321073277" to="216047552#1" modes="public"/>
    </person>
    <person id="ped28" depart="48.37" type="ped_pedestrian">
        <personTrip from="-379986704#3" to="622838149" modes="public"/>
    </person>
    <person id="ped29" depart="50.09" type="ped_pedestrian">
        <personTrip from="-379986690#1" to="1032959315#1" modes="public"/>
    </person>
    <person id="ped30" depart="51.82" type="ped_pedestrian">
        <personTrip from="885883449#5" to="321073259#0" modes="public"/>
    </person>
    <person id="ped31" depart="53.55" type="ped_pedestrian">
        <personTrip from="156148429" to="479613104" modes="public"/>
    </person>
    <person id="ped32" depart="55.27" type="ped_pedestrian">
        <personTrip from="773553553#8" to="684122877#0" modes="public"/>
    </person>
    <person id="ped33" depart="57.00" type="ped_pedestrian">
        <personTrip from="-623128860#0" to="-1032961511#4" modes="public"/>
    </person>
    <person id="ped34" depart="58.73" type="ped_pedestrian">
        <personTrip from="-900140271#1" to="-753802193#2" modes="public"/>
    </person>
    <person id="ped35" depart="60.46" type="ped_pedestrian">
        <personTrip from="-480276571#0" to="775380330#1" modes="public"/>
    </person>
    <person id="ped36" depart="62.18" type="ped_pedestrian">
        <personTrip from="775122532" to="-900140269" modes="public"/>
    </person>
    <person id="ped37" depart="63.91" type="ped_pedestrian">
        <personTrip from="379986698#5" to="1032972475" modes="public"/>
    </person>
    <person id="ped38" depart="65.64" type="ped_pedestrian">
        <personTrip from="775348270" to="1039220270#0" modes="public"/>
    </person>
    <person id="ped39" depart="67.37" type="ped_pedestrian">
        <personTrip from="-720124870" to="-658348569" modes="public"/>
    </person>
    <person id="ped40" depart="69.09" type="ped_pedestrian">
        <personTrip from="159455871#0" to="-684402132" modes="public"/>
    </person>
    <person id="ped41" depart="70.82" type="ped_pedestrian">
        <personTrip from="159457877#17" to="775348229#2" modes="public"/>
    </person>
    <person id="ped42" depart="72.55" type="ped_pedestrian">
        <personTrip from="1032987569#1" to="-480292014" modes="public"/>
    </person>
    <person id="ped43" depart="74.28" type="ped_pedestrian">
        <personTrip from="903284467" to="1042709697#2" modes="public"/>
    </person>
    <person id="ped44" depart="76.00" type="ped_pedestrian">
        <personTrip from="-1046557625#1" to="-1038286773#0" modes="public"/>
    </person>
    <person id="ped45" depart="77.73" type="ped_pedestrian">
        <personTrip from="-156148415#0" to="321073233#1" modes="public"/>
    </person>
    <person id="ped46" depart="79.46" type="ped_pedestrian">
        <personTrip from="684144285#1" to="1038390121#1" modes="public"/>
    </person>
    <person id="ped47" depart="81.19" type="ped_pedestrian">
        <personTrip from="-1038876870#1" to="1032959319#1" modes="public"/>
    </person>
    <person id="ped48" depart="82.91" type="ped_pedestrian">
        <personTrip from="901285512#1" to="1046595970" modes="public"/>
    </person>
    <person id="ped49" depart="84.64" type="ped_pedestrian">
        <personTrip from="854030729" to="774852728#0" modes="public"/>
    </person>
    <person id="ped50" depart="86.37" type="ped_pedestrian">
        <personTrip from="-1032717783" to="573960405#0" modes="public"/>
    </person>
    <person id="ped51" depart="88.09" type="ped_pedestrian">
        <personTrip from="413458161" to="1046664524" modes="public"/>
    </person>
    <person id="ped52" depart="89.82" type="ped_pedestrian">
        <personTrip from="-753802192" to="321073260#1" modes="public"/>
    </person>
    <person id="ped53" depart="91.55" type="ped_pedestrian">
        <personTrip from="-159453456" to="1038395183#3" modes="public"/>
    </person>
    <person id="ped54" depart="93.28" type="ped_pedestrian">
        <personTrip from="1039217196#0" to="775430838" modes="public"/>
    </person>
    <person id="ped55" depart="95.00" type="ped_pedestrian">
        <personTrip from="775122531" to="-684402134#1" modes="public"/>
    </person>
    <person id="ped56" depart="96.73" type="ped_pedestrian">
        <personTrip from="1041462121#3" to="-379986732#0" modes="public"/>
    </person>
    <person id="ped57" depart="98.46" type="ped_pedestrian">
        <personTrip from="775348266#4" to="774852749#1" modes="public"/>
    </person>
    <person id="ped58" depart="100.19" type="ped_pedestrian">
        <personTrip from="-794615958" to="321073257#0" modes="public"/>
    </person>
    <person id="ped59" depart="101.91" type="ped_pedestrian">
        <personTrip from="216047552#0" to="-321073239#0" modes="public"/>
    </person>
    <person id="ped60" depart="103.64" type="ped_pedestrian">
        <personTrip from="658333929#0" to="1046685137#1" modes="public"/>
    </person>
    <person id="ped61" depart="105.37" type="ped_pedestrian">
        <personTrip from="684122879#4" to="1046595973#1" modes="public"/>
    </person>
    <person id="ped62" depart="107.10" type="ped_pedestrian">
        <personTrip from="-1005819186#0" to="1005819184#2" modes="public"/>
    </person>
    <person id="ped63" depart="108.82" type="ped_pedestrian">
        <personTrip from="-1032950225#4" to="775348287#0" modes="public"/>
    </person>
    <person id="ped64" depart="110.55" type="ped_pedestrian">
        <personTrip from="775122539#1" to="772396534#2" modes="public"/>
    </person>
    <person id="ped65" depart="112.28" type="ped_pedestrian">
        <personTrip from="-875592468#1" to="-1038312618#7" modes="public"/>
    </person>
    <person id="ped66" depart="114.00" type="ped_pedestrian">
        <personTrip from="775122537#1" to="775380340#2" modes="public"/>
    </person>
    <person id="ped67" depart="115.73" type="ped_pedestrian">
        <personTrip from="-1046352109" to="1041286370#3" modes="public"/>
    </person>
    <person id="ped68" depart="117.46" type="ped_pedestrian">
        <personTrip from="-1039386574" to="658140792#1" modes="public"/>
    </person>
    <person id="ped69" depart="119.19" type="ped_pedestrian">
        <personTrip from="658348572#1" to="-159457875#4" modes="public"/>
    </person>
    <person id="ped70" depart="120.91" type="ped_pedestrian">
        <personTrip from="1040377622" to="1058756383#2" modes="public"/>
    </person>
    <person id="ped71" depart="122.64" type="ped_pedestrian">
        <personTrip from="-720124870" to="774852753" modes="public"/>
    </person>
    <person id="ped72" depart="124.37" type="ped_pedestrian">
        <personTrip from="1038390122#2" to="-480276572" modes="public"/>
    </person>
    <person id="ped73" depart="126.10" type="ped_pedestrian">
        <personTrip from="1046685137#1" to="622888969#2" modes="public"/>
    </person>
    <person id="ped74" depart="127.82" type="ped_pedestrian">
        <personTrip from="-479797342#4" to="-885883449#3" modes="public"/>
    </person>
    <person id="ped75" depart="129.55" type="ped_pedestrian">
        <personTrip from="900140271#6" to="379986690#0" modes="public"/>
    </person>
    <person id="ped76" depart="131.28" type="ped_pedestrian">
        <personTrip from="1038395189" to="1046352108#0" modes="public"/>
    </person>
    <person id="ped77" depart="133.01" type="ped_pedestrian">
        <personTrip from="-159457860" to="-573960412#1" modes="public"/>
    </person>
    <person id="ped78" depart="134.73" type="ped_pedestrian">
        <personTrip from="1030895339#1" to="159457878#1" modes="public"/>
    </person>
    <person id="ped79" depart="136.46" type="ped_pedestrian">
        <personTrip from="-624430597" to="-538068338#0" modes="public"/>
    </person>
    <person id="ped80" depart="138.19" type="ped_pedestrian">
        <personTrip from="-1039386579" to="321073239#3" modes="public"/>
    </person>
    <person id="ped81" depart="139.91" type="ped_pedestrian">
        <personTrip from="-622816294" to="775348242" modes="public"/>
    </person>
    <person id="ped82" depart="141.64" type="ped_pedestrian">
        <personTrip from="774852724#1" to="-1039386579" modes="public"/>
    </person>
    <person id="ped83" depart="143.37" type="ped_pedestrian">
        <personTrip from="-658068462#1" to="379986750" modes="public"/>
    </person>
    <person id="ped84" depart="145.10" type="ped_pedestrian">
        <personTrip from="-480284601" to="-166533033#1" modes="public"/>
    </person>
    <person id="ped85" depart="146.82" type="ped_pedestrian">
        <personTrip from="775348297#2" to="159457862" modes="public"/>
    </person>
    <person id="ped86" depart="148.55" type="ped_pedestrian">
        <personTrip from="1039422041#1" to="684135622#9" modes="public"/>
    </person>
    <person id="ped87" depart="150.28" type="ped_pedestrian">
        <personTrip from="755285217" to="-379986772#0" modes="public"/>
    </person>
    <person id="ped88" depart="152.01" type="ped_pedestrian">
        <personTrip from="-1046628047#0" to="1038395175" modes="public"/>
    </person>
    <person id="ped89" depart="153.73" type="ped_pedestrian">
        <personTrip from="1038390122#3" to="1039386578#1" modes="public"/>
    </person>
    <person id="ped90" depart="155.46" type="ped_pedestrian">
        <personTrip from="622816294" to="379986760" modes="public"/>
    </person>
    <person id="ped91" depart="157.19" type="ped_pedestrian">
        <personTrip from="885883443#1" to="-1046628050" modes="public"/>
    </person>
    <person id="ped92" depart="158.92" type="ped_pedestrian">
        <personTrip from="1036349338" to="1030895342#1" modes="public"/>
    </person>
    <person id="ped93" depart="160.64" type="ped_pedestrian">
        <personTrip from="774852730#0" to="-658369595#0" modes="public"/>
    </person>
    <person id="ped94" depart="162.37" type="ped_pedestrian">
        <personTrip from="-379986771#1" to="1038876870#0" modes="public"/>
    </person>
    <person id="ped95" depart="164.10" type="ped_pedestrian">
        <personTrip from="1038390121#0" to="-772396530" modes="public"/>
    </person>
    <person id="ped96" depart="165.82" type="ped_pedestrian">
        <personTrip from="-658369595#3" to="775348280#4" modes="public"/>
    </person>
    <person id="ped97" depart="167.55" type="ped_pedestrian">
        <personTrip from="1038801179#0" to="774852728#2" modes="public"/>
    </person>
    <person id="ped98" depart="169.28" type="ped_pedestrian">
        <personTrip from="1058756383#3" to="-1038286773#9" modes="public"/>
    </person>
    <person id="ped99" depart="171.01" type="ped_pedestrian">
        <personTrip from="994872979" to="773159619" modes="public"/>
    </person>
    <person id="ped100" depart="172.73" type="ped_pedestrian">
        <personTrip from="853506097#0" to="775348283#1" modes="public"/>
    </person>
    <person id="ped101" depart="174.46" type="ped_pedestrian">
        <personTrip from="773553567#0" to="-379986696#0" modes="public"/>
    </person>
    <person id="ped102" depart="176.19" type="ped_pedestrian">
        <personTrip from="1041286370#2" to="-480284598#3" modes="public"/>
    </person>
    <person id="ped103" depart="177.92" type="ped_pedestrian">
        <personTrip from="1036113603#0" to="-1038312618#9" modes="public"/>
    </person>
    <person id="ped104" depart="179.64" type="ped_pedestrian">
        <personTrip from="1032959315#0" to="885883444#0" modes="public"/>
    </person>
    <person id="ped105" depart="181.37" type="ped_pedestrian">
        <personTrip from="-753799330#0" to="684135622#8" modes="public"/>
    </person>
    <person id="ped106" depart="183.10" type="ped_pedestrian">
        <personTrip from="1039217198#2" to="1038390122#2" modes="public"/>
    </person>
    <person id="ped107" depart="184.83" type="ped_pedestrian">
        <personTrip from="775599632" to="900140271#7" modes="public"/>
    </person>
    <person id="ped108" depart="186.55" type="ped_pedestrian">
        <personTrip from="156148415#0" to="538085876" modes="public"/>
    </person>
    <person id="ped109" depart="188.28" type="ped_pedestrian">
        <personTrip from="-321073252#1" to="-775430845#1" modes="public"/>
    </person>
    <person id="ped110" depart="190.01" type="ped_pedestrian">
        <personTrip from="853506096" to="159457875#4" modes="public"/>
    </person>
    <person id="ped111" depart="191.74" type="ped_pedestrian">
        <personTrip from="1046695803#2" to="625418520" modes="public"/>
    </person>
    <person id="ped112" depart="193.46" type="ped_pedestrian">
        <personTrip from="-1038312618#5" to="159457877#16" modes="public"/>
    </person>
    <person id="ped113" depart="195.19" type="ped_pedestrian">
        <personTrip from="1041465734" to="773864245" modes="public"/>
    </person>
    <person id="ped114" depart="196.92" type="ped_pedestrian">
        <personTrip from="-321073256" to="814050150#0" modes="public"/>
    </person>
    <person id="ped115" depart="198.64" type="ped_pedestrian">
        <personTrip from="-1042355415" to="-379986760" modes="public"/>
    </person>
    <person id="ped116" depart="200.37" type="ped_pedestrian">
        <personTrip from="159457887#10" to="379986764#0" modes="public"/>
    </person>
    <person id="ped117" depart="202.10" type="ped_pedestrian">
        <personTrip from="-625418552#4" to="-159455894#0" modes="public"/>
    </person>
    <person id="ped118" depart="203.83" type="ped_pedestrian">
        <personTrip from="775122573#0" to="-658347997" modes="public"/>
    </person>
    <person id="ped119" depart="205.55" type="ped_pedestrian">
        <personTrip from="159457887#1" to="216064941#0" modes="public"/>
    </person>
    <person id="ped120" depart="207.28" type="ped_pedestrian">
        <personTrip from="1038357448" to="159457877#14" modes="public"/>
    </person>
    <person id="ped121" depart="209.01" type="ped_pedestrian">
        <personTrip from="1046557620" to="775348297#0" modes="public"/>
    </person>
    <person id="ped122" depart="210.74" type="ped_pedestrian">
        <personTrip from="-480252150#1" to="491630623#0" modes="public"/>
    </person>
    <person id="ped123" depart="212.46" type="ped_pedestrian">
        <personTrip from="-658100063#0" to="1032972476" modes="public"/>
    </person>
    <person id="ped124" depart="214.19" type="ped_pedestrian">
        <personTrip from="379986757#0" to="-817310825#0" modes="public"/>
    </person>
    <person id="ped125" depart="215.92" type="ped_pedestrian">
        <personTrip from="-900140271#3" to="625418552#4" modes="public"/>
    </person>
    <person id="ped126" depart="217.65" type="ped_pedestrian">
        <personTrip from="-1039442039" to="1039220269" modes="public"/>
    </person>
    <person id="ped127" depart="219.37" type="ped_pedestrian">
        <personTrip from="994872977" to="901285512#1" modes="public"/>
    </person>
    <person id="ped128" depart="221.10" type="ped_pedestrian">
        <personTrip from="-1039442040#1" to="-480284598#1" modes="public"/>
    </person>
    <person id="ped129" depart="222.83" type="ped_pedestrian">
        <personTrip from="-753799330#0" to="775348293" modes="public"/>
    </person>
    <person id="ped130" depart="224.55" type="ped_pedestrian">
        <personTrip from="775122544#1" to="775122540" modes="public"/>
    </person>
    <person id="ped131" depart="226.28" type="ped_pedestrian">
        <personTrip from="1032950226#0" to="-321073268#0" modes="public"/>
    </person>
    <person id="ped132" depart="228.01" type="ped_pedestrian">
        <personTrip from="773104538#0" to="480276570#5" modes="public"/>
    </person>
    <person id="ped133" depart="229.74" type="ped_pedestrian">
        <personTrip from="216047555#0" to="885883446" modes="public"/>
    </person>
    <person id="ped134" depart="231.46" type="ped_pedestrian">
        <personTrip from="379986696#3" to="-1032698568#0" modes="public"/>
    </person>
    <person id="ped135" depart="233.19" type="ped_pedestrian">
        <personTrip from="770717814#1" to="-816967529" modes="public"/>
    </person>
    <person id="ped136" depart="234.92" type="ped_pedestrian">
        <personTrip from="379986723#3" to="775348303#0" modes="public"/>
    </person>
    <person id="ped137" depart="236.65" type="ped_pedestrian">
        <personTrip from="-208527107" to="-159455871#4" modes="public"/>
    </person>
    <person id="ped138" depart="238.37" type="ped_pedestrian">
        <personTrip from="-1046695803#2" to="145126348#2" modes="public"/>
    </person>
    <person id="ped139" depart="240.10" type="ped_pedestrian">
        <personTrip from="-754391073#0" to="166533031" modes="public"/>
    </person>
    <person id="ped140" depart="241.83" type="ped_pedestrian">
        <personTrip from="538068338#1" to="-480252144" modes="public"/>
    </person>
    <person id="ped141" depart="243.56" type="ped_pedestrian">
        <personTrip from="321073248#3" to="-684402137#0" modes="public"/>
    </person>
    <person id="ped142" depart="245.28" type="ped_pedestrian">
        <personTrip from="1041286372#1" to="775348241#3" modes="public"/>
    </person>
    <person id="ped143" depart="247.01" type="ped_pedestrian">
        <personTrip from="773553564#0" to="-1046565840#0" modes="public"/>
    </person>
    <person id="ped144" depart="248.74" type="ped_pedestrian">
        <personTrip from="1038390122#3" to="-772391454#0" modes="public"/>
    </person>
    <person id="ped145" depart="250.46" type="ped_pedestrian">
        <personTrip from="-1011007455#1" to="659807191#0" modes="public"/>
    </person>
    <person id="ped146" depart="252.19" type="ped_pedestrian">
        <personTrip from="321073254" to="-684135625#3" modes="public"/>
    </person>
    <person id="ped147" depart="253.92" type="ped_pedestrian">
        <personTrip from="625397288#2" to="145126346#0" modes="public"/>
    </person>
    <person id="ped148" depart="255.65" type="ped_pedestrian">
        <personTrip from="1038393145#1" to="-1032698570#1" modes="public"/>
    </person>
    <person id="ped149" depart="257.37" type="ped_pedestrian">
        <personTrip from="-1040591003" to="775122551#3" modes="public"/>
    </person>
    <person id="ped150" depart="259.10" type="ped_pedestrian">
        <personTrip from="775348239#1" to="1058755913#0" modes="public"/>
    </person>
    <person id="ped151" depart="260.83" type="ped_pedestrian">
        <personTrip from="773159606" to="159457877#11" modes="public"/>
    </person>
    <person id="ped152" depart="262.56" type="ped_pedestrian">
        <personTrip from="-255187763#0" to="-159457875#14" modes="public"/>
    </person>
    <person id="ped153" depart="264.28" type="ped_pedestrian">
        <personTrip from="-875592473#0" to="775348231#2" modes="public"/>
    </person>
    <person id="ped154" depart="266.01" type="ped_pedestrian">
        <personTrip from="684498728#0" to="774852728#0" modes="public"/>
    </person>
    <person id="ped155" depart="267.74" type="ped_pedestrian">
        <personTrip from="775348231#2" to="-480276570#4" modes="public"/>
    </person>
    <person id="ped156" depart="269.47" type="ped_pedestrian">
        <personTrip from="-658369595#2" to="-1046664527" modes="public"/>
    </person>
    <person id="ped157" depart="271.19" type="ped_pedestrian">
        <personTrip from="684122880#1" to="775122553#2" modes="public"/>
    </person>
    <person id="ped158" depart="272.92" type="ped_pedestrian">
        <personTrip from="1038286773#12" to="216064942#2" modes="public"/>
    </person>
    <person id="ped159" depart="274.65" type="ped_pedestrian">
        <personTrip from="-321073252#0" to="775348289#0" modes="public"/>
    </person>
    <person id="ped160" depart="276.37" type="ped_pedestrian">
        <personTrip from="774852736" to="857375431#3" modes="public"/>
    </person>
    <person id="ped161" depart="278.10" type="ped_pedestrian">
        <personTrip from="770708085#2" to="775122547#1" modes="public"/>
    </person>
    <person id="ped162" depart="279.83" type="ped_pedestrian">
        <personTrip from="-1032950228#9" to="625382079#1" modes="public"/>
    </person>
    <person id="ped163" depart="281.56" type="ped_pedestrian">
        <personTrip from="1011179086#1" to="775348290#0" modes="public"/>
    </person>
    <person id="ped164" depart="283.28" type="ped_pedestrian">
        <personTrip from="753802194" to="774852734#2" modes="public"/>
    </person>
    <person id="ped165" depart="285.01" type="ped_pedestrian">
        <personTrip from="770708085#2" to="-753802192" modes="public"/>
    </person>
    <person id="ped166" depart="286.74" type="ped_pedestrian">
        <personTrip from="684144279#0" to="-145126346#0" modes="public"/>
    </person>
    <person id="ped167" depart="288.47" type="ped_pedestrian">
        <personTrip from="774852752#2" to="774852723#5" modes="public"/>
    </person>
    <person id="ped168" depart="290.19" type="ped_pedestrian">
        <personTrip from="-538085880#3" to="770717810#1" modes="public"/>
    </person>
    <person id="ped169" depart="291.92" type="ped_pedestrian">
        <personTrip from="1039220271#3" to="-875592429#0" modes="public"/>
    </person>
    <person id="ped170" depart="293.65" type="ped_pedestrian">
        <personTrip from="684496714" to="-574034169" modes="public"/>
    </person>
    <person id="ped171" depart="295.38" type="ped_pedestrian">
        <personTrip from="-1032950228#5" to="-479613102#1" modes="public"/>
    </person>
    <person id="ped172" depart="297.10" type="ped_pedestrian">
        <personTrip from="100646196#3" to="774852735" modes="public"/>
    </person>
    <person id="ped173" depart="298.83" type="ped_pedestrian">
        <personTrip from="817310825#1" to="-772396531#0" modes="public"/>
    </person>
    <person id="ped174" depart="300.56" type="ped_pedestrian">
        <personTrip from="321073262" to="1032987569#2" modes="public"/>
    </person>
    <person id="ped175" depart="302.28" type="ped_pedestrian">
        <personTrip from="875592468#1" to="1046664522" modes="public"/>
    </person>
    <person id="ped176" depart="304.01" type="ped_pedestrian">
        <personTrip from="775348303#1" to="-159455871#4" modes="public"/>
    </person>
    <person id="ped177" depart="305.74" type="ped_pedestrian">
        <personTrip from="853522180#2" to="-379986732#0" modes="public"/>
    </person>
    <person id="ped178" depart="307.47" type="ped_pedestrian">
        <personTrip from="814050150#6" to="-753799330#0" modes="public"/>
    </person>
    <person id="ped179" depart="309.19" type="ped_pedestrian">
        <personTrip from="-145126346#1" to="1038395183#2" modes="public"/>
    </person>
    <person id="ped180" depart="310.92" type="ped_pedestrian">
        <personTrip from="583797088" to="-885883449#9" modes="public"/>
    </person>
    <person id="ped181" depart="312.65" type="ped_pedestrian">
        <personTrip from="166533033#2" to="1043093825#1" modes="public"/>
    </person>
    <person id="ped182" depart="314.38" type="ped_pedestrian">
        <personTrip from="1032961514" to="159457875#1" modes="public"/>
    </person>
    <person id="ped183" depart="316.10" type="ped_pedestrian">
        <personTrip from="-684122879#6" to="480288293#1" modes="public"/>
    </person>
    <person id="ped184" depart="317.83" type="ped_pedestrian">
        <personTrip from="-1005819188" to="775348282#1" modes="public"/>
    </person>
    <person id="ped185" depart="319.56" type="ped_pedestrian">
        <personTrip from="1046685135" to="538085880#1" modes="public"/>
    </person>
    <person id="ped186" depart="321.29" type="ped_pedestrian">
        <personTrip from="625397288#4" to="379986755#0" modes="public"/>
    </person>
    <person id="ped187" depart="323.01" type="ped_pedestrian">
        <personTrip from="1032950219#0" to="-1039386577" modes="public"/>
    </person>
    <person id="ped188" depart="324.74" type="ped_pedestrian">
        <personTrip from="379986726" to="1011179080#1" modes="public"/>
    </person>
    <person id="ped189" depart="326.47" type="ped_pedestrian">
        <personTrip from="-900140267" to="773553565#2" modes="public"/>
    </person>
    <person id="ped190" depart="328.20" type="ped_pedestrian">
        <personTrip from="538085880#2" to="-817310825#1" modes="public"/>
    </person>
    <person id="ped191" depart="329.92" type="ped_pedestrian">
        <personTrip from="-875592499#0" to="1038286773#9" modes="public"/>
    </person>
    <person id="ped192" depart="331.65" type="ped_pedestrian">
        <personTrip from="1036349338" to="-775430843" modes="public"/>
    </person>
    <person id="ped193" depart="333.38" type="ped_pedestrian">
        <personTrip from="-159457875#13" to="1038357450#1" modes="public"/>
    </person>