<?xml version="1.0" encoding="UTF-8"?>

<!-- generated on 2022-06-12 14:35:20 by Eclipse SUMO netedit Version 1.13.0
<configuration xmlns:xsi="http://www.w3.org/2001/XMLSchema-instance" xsi:noNamespaceSchemaLocation="http://sumo.dlr.de/xsd/netconvertConfiguration.xsd">

    <input>
        <sumo-net-file value="C:\Users\hamza\Desktop\ec\ec.net.xml"/>
    </input>

    <output>
        <output-file value="C:\Users\hamza\Desktop\ec\ec.net.xml"/>
        <plain-output-prefix value="C:\Users\hamza\Desktop\ec\ec"/>
        <output.street-names value="true"/>
    </output>

    <processing>
        <geometry.min-radius.fix.railways value="false"/>
        <geometry.max-grade.fix value="false"/>
        <offset.disable-normalization value="true"/>
        <lefthand value="false"/>
    </processing>

    <junctions>
        <no-internal-links value="false"/>
        <no-turnarounds value="true"/>
        <junctions.corner-detail value="5"/>
        <junctions.limit-turn-speed value="5.5"/>
        <rectangular-lane-cut value="false"/>
    </junctions>

    <pedestrian>
        <walkingareas value="true"/>
    </pedestrian>

    <report>
        <aggregate-warnings value="5"/>
    </report>

</configuration>
-->

<tlLogics version="1.9" xmlns:xsi="http://www.w3.org/2001/XMLSchema-instance" xsi:noNamespaceSchemaLocation="http://sumo.dlr.de/xsd/tllogic_file.xsd">
    <tlLogic id="2434892918" type="static" programID="0" offset="0">
        <phase duration="42" state="GGGrrr"/>
        <phase duration="3"  state="yyyrrr"/>
        <phase duration="42" state="rrrGGG"/>
        <phase duration="3"  state="rrryyy"/>
    </tlLogic>
    <tlLogic id="2434892918" type="static" programID="a" offset="0">
        <phase duration="9"  state="GGGrrr"/>
        <phase duration="3"  state="yyyrrr"/>
        <phase duration="4"  state="rrrGGG"/>
        <phase duration="3"  state="rrryyy"/>
    </tlLogic>
    <tlLogic id="3277881134" type="static" programID="0" offset="0">
        <phase duration="42" state="GGrrr"/>
        <phase duration="3"  state="yyrrr"/>
        <phase duration="42" state="rrGGG"/>
        <phase duration="3"  state="rryyy"/>
    </tlLogic>
    <tlLogic id="3277881134" type="static" programID="a" offset="0">
        <phase duration="6"  state="GGrrr"/>
        <phase duration="3"  state="yyrrr"/>
        <phase duration="6"  state="rrGGG"/>
        <phase duration="3"  state="rryyy"/>
    </tlLogic>
    <tlLogic id="4728408954" type="static" programID="0" offset="0">
        <phase duration="12" state="GGGrrrGGGrrrGGGrrrGGGGGGGGGrrrGGGrrrGGG"/>
        <phase duration="6"  state="yyyrrryyyrrryyyrrryyyyyyyyyrrryyyrrryyy"/>
        <phase duration="12" state="GGGrrrrrrGGGrrrGGGGGGGGGGGGrrrGGGrrrGGG"/>
        <phase duration="6"  state="yyyrrrrrryyyrrryyyyyyyyyyyyrrryyyrrryyy"/>
        <phase duration="12" state="rrrGGGGGGrrrGGGrrrrrrrrrrrrGGGrrrGGGrrr"/>
        <phase duration="6"  state="rrryyyyyyrrryyyrrrrrrrrrrrryyyrrryyyrrr"/>
        <phase duration="12" state="GGGrrrGGGrrrGGGrrrGGGGGGGGGrrrGGGrrrGGG"/>
        <phase duration="6"  state="yyyrrryyyrrryyyrrryyyyyyyyyrrryyyrrryyy"/>
        <phase duration="12" state="GGGrrrGGGrrrGGGrrrGGGGGGGGGrrrGGGrrrGGG"/>
        <phase duration="6"  state="yyyrrryyyrrryyyrrryyyyyyyyyrrryyyrrryyy"/>
    </tlLogic>
    <tlLogic id="4835629819" type="static" programID="0" offset="0">
        <phase duration="82" state="GG"/>
        <phase duration="3"  state="yy"/>
        <phase duration="5"  state="rr"/>
    </tlLogic>
    <tlLogic id="4835629819" type="static" programID="a" offset="0">
        <phase duration="16" state="GG"/>
        <phase duration="3"  state="yy"/>
        <phase duration="5"  state="rr"/>
    </tlLogic>
    <tlLogic id="6409038390" type="static" programID="0" offset="0">
        <phase duration="42" state="rrrGGGg"/>
        <phase duration="3"  state="rrryyyy"/>
        <phase duration="42" state="GGgGrrr"/>
        <phase duration="3"  state="yyyyrrr"/>
    </tlLogic>
    <tlLogic id="6409038390" type="static" programID="a" offset="0">
        <phase duration="6"  state="rrrGGGg"/>
        <phase duration="3"  state="rrryyyy"/>
        <phase duration="6"  state="GGgGrrr"/>
        <phase duration="3"  state="yyyyrrr"/>
    </tlLogic>
    <tlLogic id="6952859394" type="static" programID="0" offset="0">
        <phase duration="42" state="rrrGGG"/>
        <phase duration="3"  state="rrryyy"/>
        <phase duration="42" state="GGGrrr"/>
        <phase duration="3"  state="yyyrrr"/>
    </tlLogic>
    <tlLogic id="6952859394" type="static" programID="a" offset="0">
        <phase duration="5"  state="rrrGGG"/>
        <phase duration="3"  state="rrryyy"/>
        <phase duration="9"  state="GGGrrr"/>
        <phase duration="3"  state="yyyrrr"/>
    </tlLogic>
    <tlLogic id="6952859415" type="static" programID="0" offset="0">
        <phase duration="42" state="rrrGGG"/>
        <phase duration="3"  state="rrryyy"/>
        <phase duration="42" state="GGGrrr"/>
        <phase duration="3"  state="yyyrrr"/>
    </tlLogic>
    <tlLogic id="6952859415" type="static" programID="a" offset="0">
        <phase duration="8"  state="rrrGGG"/>
        <phase duration="3"  state="rrryyy"/>
        <phase duration="5"  state="GGGrrr"/>
        <phase duration="3"  state="yyyrrr"/>
    </tlLogic>
    <tlLogic id="6952861229" type="static" programID="0" offset="0">
        <phase duration="21" state="rrGGG"/>
        <phase duration="3"  state="rryyy"/>
        <phase duration="21" state="GGrrr"/>
        <phase duration="3"  state="yyrrr"/>
    </tlLogic>
    <tlLogic id="6952861229" type="static" programID="a" offset="0">
        <phase duration="6"  state="rrGGG"/>
        <phase duration="3"  state="rryyy"/>
        <phase duration="7"  state="GGrrr"/>
        <phase duration="3"  state="yyrrr"/>
    </tlLogic>
    <tlLogic id="7964622653" type="static" programID="0" offset="0">
        <phase duration="77" state="GGr"/>
        <phase duration="3"  state="yyr"/>
        <phase duration="5"  state="rrG"/>
        <phase duration="5"  state="rrr"/>
    </tlLogic>
    <tlLogic id="7964622653" type="static" programID="a" offset="0">
        <phase duration="12" state="GGr"/>
        <phase duration="3"  state="yyr"/>
        <phase duration="4"  state="rrG"/>
        <phase duration="5"  state="rrr"/>
    </tlLogic>
    <tlLogic id="7964622663" type="static" programID="0" offset="0">
        <phase duration="77" state="GGr"/>
        <phase duration="3"  state="yyr"/>
        <phase duration="5"  state="rrG"/>
        <phase duration="5"  state="rrr"/>
    </tlLogic>
    <tlLogic id="7964622663" type="static" programID="a" offset="0">
        <phase duration="12" state="GGr"/>
        <phase duration="3"  state="yyr"/>
        <phase duration="4"  state="rrG"/>
        <phase duration="5"  state="rrr"/>
    </tlLogic>
    <tlLogic id="7964871387" type="static" programID="0" offset="0">
        <phase duration="27" state="GGrrrr"/>
        <phase duration="3"  state="yyrrrr"/>
        <phase duration="27" state="rrrrGG"/>
        <phase duration="3"  state="rrrryy"/>
        <phase duration="27" state="rrGGrr"/>
        <phase duration="3"  state="rryyrr"/>
    </tlLogic>
    <tlLogic id="7964871387" type="static" programID="a" offset="0">
        <phase duration="4"  state="GGrrrr"/>
        <phase duration="3"  state="yyrrrr"/>
        <phase duration="7"  state="rrrrGG"/>
        <phase duration="3"  state="rrrryy"/>
        <phase duration="4"  state="rrGGrr"/>
        <phase duration="3"  state="rryyrr"/>
    </tlLogic>
    <tlLogic id="7964961807" type="static" programID="0" offset="0">
        <phase duration="27" state="GGrrrrr"/>
        <phase duration="3"  state="yyrrrrr"/>
        <phase duration="27" state="rrrrGGG"/>
        <phase duration="3"  state="rrrryyy"/>
        <phase duration="27" state="rrGGrrr"/>
        <phase duration="3"  state="rryyrrr"/>
    </tlLogic>
    <tlLogic id="9546041380" type="actuated" programID="0" offset="0">
        <phase duration="77" state="GGr" minDur="5" maxDur="50"/>
        <phase duration="3"  state="yyr"/>
        <phase duration="5"  state="rrG"/>
        <phase duration="5"  state="rrr"/>
    </tlLogic>
    <tlLogic id="9546041380" type="actuated" programID="a" offset="0">
        <phase duration="12" state="GGr"/>
        <phase duration="3"  state="yyr"/>
        <phase duration="4"  state="rrG"/>
        <phase duration="5"  state="rrr"/>
    </tlLogic>
    <tlLogic id="9546041383" type="actuated" programID="0" offset="0">
        <phase duration="77" state="GGr" minDur="5" maxDur="50"/>
        <phase duration="3"  state="yyr"/>
        <phase duration="5"  state="rrG"/>
        <phase duration="5"  state="rrr"/>
    </tlLogic>
    <tlLogic id="9546041383" type="actuated" programID="a" offset="0">
        <phase duration="12" state="GGr"/>
        <phase duration="3"  state="yyr"/>
        <phase duration="4"  state="rrG"/>
        <phase duration="5"  state="rrr"/>
    </tlLogic>
    <tlLogic id="9546041384" type="actuated" programID="0" offset="0">
        <phase duration="82" state="G" minDur="5" maxDur="50"/>
        <phase duration="3"  state="y"/>
        <phase duration="5"  state="r"/>
    </tlLogic>
    <tlLogic id="9546041384" type="actuated" programID="a" offset="0">
        <phase duration="16" state="G"/>
        <phase duration="3"  state="y"/>
        <phase duration="5"  state="r"/>
    </tlLogic>
    <tlLogic id="9561495397" type="static" programID="0" offset="0">
        <phase duration="27" state="rrGGrr"/>
        <phase duration="3"  state="rryyrr"/>
        <phase duration="27" state="GGGrrr"/>
        <phase duration="3"  state="yyyrrr"/>
        <phase duration="27" state="rrrrGG"/>
        <phase duration="3"  state="rrrryy"/>
    </tlLogic>
    <tlLogic id="9561495397" type="static" programID="a" offset="0">
        <phase duration="10" state="rrGGrr"/>
        <phase duration="3"  state="rryyrr"/>
        <phase duration="4"  state="GGGrrr"/>
        <phase duration="3"  state="yyyrrr"/>
        <phase duration="4"  state="rrrrGG"/>
        <phase duration="3"  state="rrrryy"/>
    </tlLogic>
    <tlLogic id="9561495409" type="static" programID="0" offset="0">
        <phase duration="27" state="rrrrrrrGGGG"/>
        <phase duration="3"  state="rrrrrrryyyy"/>
        <phase duration="27" state="GGGrrrrrrrr"/>
        <phase duration="3"  state="yyyrrrrrrrr"/>
        <phase duration="27" state="rrrGGGGrrrr"/>
        <phase duration="3"  state="rrryyyyrrrr"/>
    </tlLogic>
    <tlLogic id="9561496419" type="static" programID="0" offset="0">
        <phase duration="42" state="GGrrr"/>
        <phase duration="3"  state="yyrrr"/>
        <phase duration="42" state="rrGGG"/>
        <phase duration="3"  state="rryyy"/>
    </tlLogic>
    <tlLogic id="9561496419" type="static" programID="a" offset="0">
        <phase duration="8"  state="GGrrr"/>
        <phase duration="3"  state="yyrrr"/>
        <phase duration="4"  state="rrGGG"/>
        <phase duration="3"  state="rryyy"/>
    </tlLogic>
    <tlLogic id="9586640063" type="static" programID="0" offset="0">
        <phase duration="77" state="GGr"/>
        <phase duration="3"  state="yyr"/>
        <phase duration="5"  state="rrG"/>
        <phase duration="5"  state="rrr"/>
    </tlLogic>
    <tlLogic id="9586640063" type="static" programID="a" offset="0">
        <phase duration="12" state="GGr"/>
        <phase duration="3"  state="yyr"/>
        <phase duration="4"  state="rrG"/>
        <phase duration="5"  state="rrr"/>
    </tlLogic>
    <tlLogic id="9586640071" type="static" programID="0" offset="0">
        <phase duration="77" state="GGr"/>
        <phase duration="3"  state="yyr"/>
        <phase duration="5"  state="rrG"/>
        <phase duration="5"  state="rrr"/>
    </tlLogic>
    <tlLogic id="9586640071" type="static" programID="a" offset="0">
        <phase duration="12" state="GGr"/>
        <phase duration="3"  state="yyr"/>
        <phase duration="4"  state="rrG"/>
        <phase duration="5"  state="rrr"/>
    </tlLogic>
    <tlLogic id="9586640076" type="static" programID="0" offset="0">
        <phase duration="77" state="GGr"/>
        <phase duration="3"  state="yyr"/>
        <phase duration="5"  state="rrG"/>
        <phase duration="5"  state="rrr"/>
    </tlLogic>
    <tlLogic id="9586640076" type="static" programID="a" offset="0">
        <phase duration="12" state="GGr"/>
        <phase duration="3"  state="yyr"/>
        <phase duration="4"  state="rrG"/>
        <phase duration="5"  state="rrr"/>
    </tlLogic>
    <tlLogic id="9586640083" type="static" programID="0" offset="0">
        <phase duration="77" state="GGr"/>
        <phase duration="3"  state="yyr"/>
        <phase duration="5"  state="rrG"/>
        <phase duration="5"  state="rrr"/>
    </tlLogic>
    <tlLogic id="9586640083" type="static" programID="a" offset="0">
        <phase duration="12" state="GGr"/>
        <phase duration="3"  state="yyr"/>
        <phase duration="4"  state="rrG"/>
        <phase duration="5"  state="rrr"/>
    </tlLogic>
    <tlLogic id="9588649162" type="static" programID="0" offset="0">
        <phase duration="21" state="GGGrrr"/>
        <phase duration="3"  state="yyyrrr"/>
        <phase duration="21" state="rrrGGG"/>
        <phase duration="3"  state="rrryyy"/>
    </tlLogic>
    <tlLogic id="9588649162" type="static" programID="a" offset="0">
        <phase duration="4"  state="GGGrrr"/>
        <phase duration="3"  state="yyyrrr"/>
        <phase duration="13" state="rrrGGG"/>
        <phase duration="3"  state="rrryyy"/>
    </tlLogic>
    <tlLogic id="J0" type="static" programID="0" offset="0">
        <phase duration="81" state="GGG"/>
        <phase duration="4"  state="yyy"/>
        <phase duration="5"  state="rrr"/>
    </tlLogic>
    <tlLogic id="J0" type="static" programID="a" offset="0">
        <phase duration="16" state="GGG"/>
        <phase duration="4"  state="yyy"/>
        <phase duration="5"  state="rrr"/>
    </tlLogic>
    <tlLogic id="J1" type="static" programID="0" offset="0">
        <phase duration="81" state="GGG"/>
        <phase duration="4"  state="yyy"/>
        <phase duration="5"  state="rrr"/>
    </tlLogic>
    <tlLogic id="J1" type="static" programID="a" offset="0">
        <phase duration="16" state="GGG"/>
        <phase duration="4"  state="yyy"/>
        <phase duration="5"  state="rrr"/>
    </tlLogic>
    <tlLogic id="cluster_1589660350_4818342186_4818342187_4818342193_4818342198_4823881967_4823881969_4823881972_4823881988_5844844468_5844844472_9586721401_9586721402_9586721404_9586721405_9586721406_9586721408" type="static" programID="0" offset="0">
        <phase duration="9"  state="rrGrrGrrrrgGGGG"/>
        <phase duration="5"  state="rrGrrGrrrrgGGrr"/>
        <phase duration="5"  state="rryrryrrrryyyrr"/>
        <phase duration="6"  state="rrGGGGrrrrrrrrr"/>
        <phase duration="5"  state="rryyyyrrrrrrrrr"/>
        <phase duration="10" state="GGrrrrrGGGrrrrG"/>
        <phase duration="5"  state="GGrrrrrGGGrrrrr"/>
        <phase duration="5"  state="yyrrrrryyyrrrrr"/>
        <phase duration="10" state="GGrrrrrrrrrrrGG"/>
        <phase duration="5"  state="GGrrrrrrrrrrrrr"/>
        <phase duration="5"  state="yyrrrrrrrrrrrrr"/>
        <phase duration="10" state="GrrrrrGrrrrrrGG"/>
        <phase duration="5"  state="GrrrrrGrrrrrrrr"/>
        <phase duration="5"  state="yrrrrryrrrrrrrr"/>
    </tlLogic>
    <tlLogic id="cluster_1589660350_4818342186_4818342187_4818342193_4818342198_4823881967_4823881969_4823881972_4823881988_5844844468_5844844472_9586721401_9586721402_9586721404_9586721405_9586721406_9586721408" type="static" programID="a" offset="0">
        <phase duration="8"  state="rrGrrGrrrrgGGGG"/>
        <phase duration="8"  state="rrGrrGrrrrgGGrr"/>
        <phase duration="5"  state="rryrryrrrryyyrr"/>
        <phase duration="4"  state="rrGGGGrrrrrrrrr"/>
        <phase duration="5"  state="rryyyyrrrrrrrrr"/>
        <phase duration="4"  state="GGrrrrrGGGrrrrG"/>
        <phase duration="4"  state="GGrrrrrGGGrrrrr"/>
        <phase duration="5"  state="yyrrrrryyyrrrrr"/>
        <phase duration="4"  state="GGrrrrrrrrrrrGG"/>
        <phase duration="4"  state="GGrrrrrrrrrrrrr"/>
        <phase duration="5"  state="yyrrrrrrrrrrrrr"/>
        <phase duration="4"  state="GrrrrrGrrrrrrGG"/>
        <phase duration="4"  state="GrrrrrGrrrrrrrr"/>
        <phase duration="5"  state="yrrrrryrrrrrrrr"/>
    </tlLogic>
    <tlLogic id="cluster_2335298149_2434892909_2434892932_3935505817_5577092073_5577092077_5882481993_9334627449_9547949503_9547949504_9547949505_9547949506_9547980207_9562880832_9562880833" type="static" programID="0" offset="0">
        <phase duration="7"  state="rrrrGGGGGgrrrrrrGGGggrrGrrG"/>
        <phase duration="5"  state="rrrrGGGGGgrrrrrrGGGggrrGrrr"/>
        <phase duration="4"  state="rrrryyyyygrrrrrryyyggrryrrr"/>
        <phase duration="6"  state="rrrrrrrrrGrrrrrrrrrGGrrrrrr"/>
        <phase duration="4"  state="rrrrrrrrryrrrrrrrrryyrrrrrr"/>
        <phase duration="9"  state="rrrGgrrrrrGGGrrgGrrrrGGrGGG"/>
        <phase duration="5"  state="rrrGgrrrrrGGGrrgGrrrrGGrrrr"/>
        <phase duration="4"  state="rrryyrrrrryyyrryyrrrryyrrrr"/>
        <phase duration="9"  state="GGgrGrrrrrrGGGggrrrrrrrGrGr"/>
        <phase duration="5"  state="GGgrGrrrrrrGGGggrrrrrrrGrrr"/>
        <phase duration="4"  state="yygryrrrrrryyyggrrrrrrryrrr"/>
        <phase duration="6"  state="rrGrrrrrrrrrrrGGrrrrrrrrrrr"/>
        <phase duration="4"  state="rryrrrrrrrrrrryyrrrrrrrrrrr"/>
        <phase duration="9"  state="rrrGgrrrrrGGGrrgGrrrrGGgGGG"/>
        <phase duration="5"  state="rrrGgrrrrrGGGrrgGrrrrGGgrrr"/>
        <phase duration="4"  state="rrryyrrrrryyyrryyrrrryyyrrr"/>
    </tlLogic>
    <tlLogic id="cluster_2335298149_2434892909_2434892932_3935505817_5577092073_5577092077_5882481993_9334627449_9547949503_9547949504_9547949505_9547949506_9547980207_9562880832_9562880833" type="static" programID="a" offset="0">
        <phase duration="4"  state="rrrrGGGGGgrrrrrrGGGggrrGrrG"/>
        <phase duration="4"  state="rrrrGGGGGgrrrrrrGGGggrrGrrr"/>
        <phase duration="4"  state="rrrryyyyygrrrrrryyyggrryrrr"/>
        <phase duration="19" state="rrrrrrrrrGrrrrrrrrrGGrrrrrr"/>
        <phase duration="4"  state="rrrrrrrrryrrrrrrrrryyrrrrrr"/>
        <phase duration="4"  state="rrrGgrrrrrGGGrrgGrrrrGGrGGG"/>
        <phase duration="4"  state="rrrGgrrrrrGGGrrgGrrrrGGrrrr"/>
        <phase duration="4"  state="rrryyrrrrryyyrryyrrrryyrrrr"/>
        <phase duration="22" state="GGgrGrrrrrrGGGggrrrrrrrGrGr"/>
        <phase duration="22" state="GGgrGrrrrrrGGGggrrrrrrrGrrr"/>
        <phase duration="4"  state="yygryrrrrrryyyggrrrrrrryrrr"/>
        <phase duration="5"  state="rrGrrrrrrrrrrrGGrrrrrrrrrrr"/>
        <phase duration="4"  state="rryrrrrrrrrrrryyrrrrrrrrrrr"/>
        <phase duration="4"  state="rrrGgrrrrrGGGrrgGrrrrGGgGGG"/>
        <phase duration="4"  state="rrrGgrrrrrGGGrrgGrrrrGGgrrr"/>
        <phase duration="4"  state="rrryyrrrrryyyrryyrrrryyyrrr"/>
    </tlLogic>
    <tlLogic id="cluster_3273993567_5882195227" type="actuated" programID="0" offset="0">
        <phase duration="82" state="GgGg" minDur="5" maxDur="50"/>
        <phase duration="3"  state="yyyy"/>
        <phase duration="5"  state="rrrr"/>
    </tlLogic>
    <tlLogic id="cluster_3273993567_5882195227" type="actuated" programID="a" offset="0">
        <phase duration="16" state="GgGg"/>
        <phase duration="3"  state="yyyy"/>
        <phase duration="5"  state="rrrr"/>
    </tlLogic>
    <tlLogic id="cluster_3277880848_3277880854_3277881087_3935505819_9562884779" type="static" programID="0" offset="0">
        <phase duration="24" state="GrGGGgggrrrrGGGggrrrrr"/>
        <phase duration="3"  state="yryyygggrrrryyyggrrrrr"/>
        <phase duration="6"  state="rrrrrGGGrrrrrrrGGrrrrr"/>
        <phase duration="3"  state="rrrrryyyrrrrrrryyrrrrr"/>
        <phase duration="24" state="GgrrrrrrrrrrrrrrrGGGGg"/>
        <phase duration="3"  state="yyrrrrrrrrrrrrrrryyyyy"/>
        <phase duration="24" state="GrrrrrrrGGGgGrrrrrrrrr"/>
        <phase duration="3"  state="yrrrrrrryyyyyrrrrrrrrr"/>
    </tlLogic>
    <tlLogic id="cluster_3277880848_3277880854_3277881087_3935505819_9562884779" type="static" programID="a" offset="0">
        <phase duration="9"  state="GrGGGgggrrrrGGGggrrrrr"/>
        <phase duration="3"  state="yryyygggrrrryyyggrrrrr"/>
        <phase duration="4"  state="rrrrrGGGrrrrrrrGGrrrrr"/>
        <phase duration="3"  state="rrrrryyyrrrrrrryyrrrrr"/>
        <phase duration="4"  state="GgrrrrrrrrrrrrrrrGGGGg"/>
        <phase duration="3"  state="yyrrrrrrrrrrrrrrryyyyy"/>
        <phase duration="4"  state="GrrrrrrrGGGgGrrrrrrrrr"/>
        <phase duration="3"  state="yrrrrrrryyyyyrrrrrrrrr"/>
    </tlLogic>
    <tlLogic id="cluster_4728482120_4728482121_4728482128_4728482129_4728482130_4728482131_9545665409_9546055281_9546055282_9546055284_9546055285" type="static" programID="0" offset="0">
        <phase duration="42" state="GGGggGrrrrrGg"/>
        <phase duration="3"  state="yyyyyyrrrrryy"/>
        <phase duration="42" state="rrrrGGGGgGGrr"/>
        <phase duration="3"  state="rrrryyyyyyyrr"/>
    </tlLogic>
    <tlLogic id="cluster_4728482120_4728482121_4728482128_4728482129_4728482130_4728482131_9545665409_9546055281_9546055282_9546055284_9546055285" type="static" programID="a" offset="0">
        <phase duration="7"  state="GGGggGrrrrrGg"/>
        <phase duration="3"  state="yyyyyyrrrrryy"/>
        <phase duration="7"  state="rrrrGGGGgGGrr"/>
        <phase duration="3"  state="rrrryyyyyyyrr"/>
    </tlLogic>
    <tlLogic id="cluster_6952861215_6952861216" type="static" programID="0" offset="0">
        <phase duration="42" state="rrrGGGrrr"/>
        <phase duration="3"  state="rrryyyrrr"/>
        <phase duration="42" state="GGGrrrGGG"/>
        <phase duration="3"  state="yyyrrryyy"/>
    </tlLogic>
    <tlLogic id="cluster_6952861215_6952861216" type="static" programID="a" offset="0">
        <phase duration="13" state="rrrGGGrrr"/>
        <phase duration="3"  state="rrryyyrrr"/>
        <phase duration="4"  state="GGGrrrGGG"/>
        <phase duration="3"  state="yyyrrryyy"/>
    </tlLogic>
    <tlLogic id="cluster_6952861220_6952861221" type="static" programID="0" offset="0">
        <phase duration="21" state="GGGGGGrrr"/>
        <phase duration="3"  state="yyyyyyrrr"/>
        <phase duration="21" state="rrrrrrGGG"/>
        <phase duration="3"  state="rrrrrryyy"/>
    </tlLogic>
    <tlLogic id="cluster_6952861220_6952861221" type="static" programID="a" offset="0">
        <phase duration="4"  state="GGGGGGrrr"/>
        <phase duration="3"  state="yyyyyyrrr"/>
        <phase duration="11" state="rrrrrrGGG"/>
        <phase duration="3"  state="rrrrrryyy"/>
    </tlLogic>

    <connection from="-1005819189#1" to="-1005819189#0" fromLane="0" toLane="0" tl="cluster_9563800875_9563800876" linkIndex="-1"/>
    <connection from="-1005819189#2" to="-1005819189#1" fromLane="0" toLane="0" tl="4728408631" linkIndex="-1"/>
    <connection from="-100646217#1" to="-166533030" fromLane="0" toLane="0" tl="6409038390" linkIndex="3"/>
    <connection from="-100646217#1" to="-100646217#0" fromLane="0" toLane="0" tl="6409038390" linkIndex="4"/>
    <connection from="-1032950212#2" to="1032950213" fromLane="0" toLane="0" tl="cluster_6409320608_7120422867_9517033381" linkIndex="0"/>
    <connection from="-1038286773#0" to="773876919#3" fromLane="0" toLane="0" tl="cluster_3277880848_3277880854_3277881087_3935505819_9562884779" linkIndex="17"/>
    <connection from="-1038286773#0" to="224737849#1" fromLane="0" toLane="0" tl="cluster_3277880848_3277880854_3277881087_3935505819_9562884779" linkIndex="18"/>
    <connection from="-1038286773#0" to="390383583#3" fromLane="0" toLane="1" tl="cluster_3277880848_3277880854_3277881087_3935505819_9562884779" linkIndex="19"/>
    <connection from="-1038286773#0" to="321073258" fromLane="0" toLane="0" tl="cluster_3277880848_3277880854_3277881087_3935505819_9562884779" linkIndex="20"/>
    <connection from="-1038286773#0" to="1038286773#0" fromLane="0" toLane="0" tl="cluster_3277880848_3277880854_3277881087_3935505819_9562884779" linkIndex="21"/>
    <connection from="-1038286773#5" to="-1038286773#2" fromLane="0" toLane="0" tl="cluster_2335298149_2434892909_2434892932_3935505817_5577092073_5577092077_5882481993_9334627449_9547949503_9547949504_9547949505_9547949506_9547980207_9562880832_9562880833" linkIndex="22"/>
    <connection from="-1038286773#5" to="1038286773#5" fromLane="0" toLane="0" tl="cluster_2335298149_2434892909_2434892932_3935505817_5577092073_5577092077_5882481993_9334627449_9547949503_9547949504_9547949505_9547949506_9547980207_9562880832_9562880833" linkIndex="23"/>
    <connection from="-159455892#3" to="E1" fromLane="0" toLane="0" tl="cluster_6409038250_7120440142" linkIndex="0"/>
    <connection from="-208527108" to="-762107991#5" fromLane="0" toLane="0" tl="cluster_4728408571_7120440134" linkIndex="-1"/>
    <connection from="-216056776#2" to="-216056776#0" fromLane="0" toLane="0" tl="cluster_6409038207_7120440128" linkIndex="1"/>
    <connection from="-479621745#6" to="-479621745#5" fromLane="0" toLane="0" tl="5897499214" linkIndex="0"/>
    <connection from="-479621745#7" to="-479621745#6" fromLane="0" toLane="0" tl="5897499218" linkIndex="0"/>
    <connection from="-479621763#11" to="-479621763#10" fromLane="0" toLane="0" tl="6409038483" linkIndex="1"/>
    <connection from="-479621763#12" to="-479621763#11" fromLane="0" toLane="0" tl="6409038484" linkIndex="1"/>
    <connection from="-479797258#0" to="658100061#1" fromLane="0" toLane="0" tl="cluster_4728408500_6409038399_6409038400" linkIndex="0"/>
    <connection from="-479797310#6" to="-479797310#4" fromLane="0" toLane="0" tl="cluster_6409037864_7120440121" linkIndex="0"/>
    <connection from="-479797311#6" to="-E2" fromLane="0" toLane="0" tl="4728408631" linkIndex="1"/>
    <connection from="-624520076#1" to="-624520076#0" fromLane="0" toLane="0" tl="6409038484" linkIndex="-1"/>
    <connection from="-661149580#1" to="-661149580#0" fromLane="0" toLane="0" tl="6409037825" linkIndex="0"/>
    <connection from="-684135607#1" to="-684135607#0" fromLane="0" toLane="0" tl="cluster_9563800870_9563800871" linkIndex="-1"/>
    <connection from="-684135607#2" to="-684135607#1" fromLane="0" toLane="0" tl="cluster_6409037864_7120440121" linkIndex="-1"/>
    <connection from="-684135610#0" to="-762107989" fromLane="0" toLane="0" tl="cluster_6409037864_7120440121" linkIndex="-1"/>
    <connection from="-684135610#1" to="-684135610#0" fromLane="0" toLane="0" tl="cluster_9563800870_9563800871" linkIndex="-1"/>
    <connection from="-684135616#0" to="-762107994#4" fromLane="0" toLane="0" tl="6409038483" linkIndex="-1"/>
    <connection from="-762107990#1" to="-762107990#0" fromLane="0" toLane="0" tl="cluster_9563800875_9563800876" linkIndex="-1"/>
    <connection from="-762107991#2" to="-762107991#1" fromLane="0" toLane="0" tl="cluster_6409038200_7120440125" linkIndex="-1"/>
    <connection from="-762107991#3" to="-762107991#2" fromLane="0" toLane="0" tl="cluster_5882938474_7120440126" linkIndex="-1"/>
    <connection from="-762107991#4" to="-762107991#3" fromLane="0" toLane="0" tl="cluster_6409038207_7120440128" linkIndex="-1"/>
    <connection from="-762107991#5" to="-762107991#4" fromLane="0" toLane="0" tl="cluster_6409038211_7120440131" linkIndex="-1"/>
    <connection from="-762107994#4" to="-762107994#3" fromLane="0" toLane="0" tl="5897499218" linkIndex="-1"/>
    <connection from="-762107995#0" to="-624520076#1" fromLane="0" toLane="0" tl="5897499214" linkIndex="-1"/>
    <connection from="-762108000#1" to="-762108000#0" fromLane="0" toLane="0" tl="9280128411" linkIndex="-1"/>
    <connection from="-762108000#4" to="-762108000#2" fromLane="0" toLane="0" tl="cluster_4728408500_6409038399_6409038400" linkIndex="-1"/>
    <connection from="-762108000#5" to="-762108000#4" fromLane="0" toLane="0" tl="6409038395" linkIndex="-1"/>
    <connection from="-762108000#6" to="-762108000#5" fromLane="0" toLane="0" tl="6409037878" linkIndex="-1"/>
    <connection from="-762108000#7" to="-762108000#6" fromLane="0" toLane="0" tl="9566407923" linkIndex="-1"/>
    <connection from="-762108000#8" to="-762108000#7" fromLane="0" toLane="0" tl="9563800862" linkIndex="-1"/>
    <connection from="-762108000#9" to="-762108000#8" fromLane="0" toLane="0" tl="9563800859" linkIndex="-1"/>
    <connection from="-762108001#1" to="-762108001#0" fromLane="0" toLane="0" tl="cluster_4728408571_7120440134" linkIndex="-1"/>
    <connection from="-762108001#2" to="-762108001#1" fromLane="0" toLane="0" tl="cluster_6409038211_7120440131" linkIndex="-1"/>
    <connection from="-762108001#3" to="-762108001#2" fromLane="0" toLane="0" tl="cluster_6409038207_7120440128" linkIndex="-1"/>
    <connection from="-762108001#4" to="-762108001#3" fromLane="0" toLane="0" tl="cluster_5882938474_7120440126" linkIndex="-1"/>
    <connection from="-762108001#5" to="-762108001#4" fromLane="0" toLane="0" tl="cluster_6409038200_7120440125" linkIndex="-1"/>
    <connection from="-762108004#0" to="-770742892#4" fromLane="0" toLane="0" tl="cluster_6409320598_7120422877" linkIndex="-1"/>
    <connection from="-770742882#0" to="-770742883#0" fromLane="0" toLane="0" tl="cluster_6409320608_7120422867_9517033381" linkIndex="-1"/>
    <connection from="-770742882#1" to="-770742882#0" fromLane="0" toLane="0" tl="cluster_6409320599_7120422876" linkIndex="-1"/>
    <connection from="-770742892#3" to="-770742892#2" fromLane="0" toLane="0" tl="cluster_6409320608_7120422867_9517033381" linkIndex="-1"/>