<?xml version="1.0" encoding="UTF-8"?>

<!-- generated on 2022-05-18 13:11:39 by Eclipse SUMO duarouter Version 1.13.0
<configuration xmlns:xsi="http://www.w3.org/2001/XMLSchema-instance" xsi:noNamespaceSchemaLocation="http://sumo.dlr.de/xsd/duarouterConfiguration.xsd">

    <input>
        <net-file value="C:\Users\abdel\Sumo\2022-05-18-13-10-58\ec.net.xml"/>
        <route-files value="C:\Users\abdel\Sumo\2022-05-18-13-10-58\ec.truck.trips.xml"/>
    </input>

    <output>
        <output-file value="C:\Users\abdel\Sumo\2022-05-18-13-10-58\ec.truck.trips.xml.tmp"/>
        <write-trips value="true"/>
    </output>

    <time>
        <begin value="0"/>
        <end value="3600"/>
    </time>

    <report>
        <no-warnings value="true"/>
        <ignore-errors value="true"/>
        <no-step-log value="true"/>
    </report>

</configuration>
-->

<routes xmlns:xsi="http://www.w3.org/2001/XMLSchema-instance" xsi:noNamespaceSchemaLocation="http://sumo.dlr.de/xsd/routes_file.xsd">
    <vType id="truck_truck" vClass="truck"/>
    <trip id="truck0" type="truck_truck" depart="0.00" departLane="best" from="479613108#3" to="-155033028#0"/>
    <trip id="truck3" type="truck_truck" depart="4.04" departLane="best" from="625418509" to="-255416216#0"/>
    <trip id="truck4" type="truck_truck" depart="5.39" departLane="best" from="156148401#1" to="-156148432#0"/>
    <trip id="truck5" type="truck_truck" depart="6.73" departLane="best" departSpeed="max" from="-480252897#2" to="216060954#2"/>
    <trip id="truck8" type="truck_truck" depart="10.77" departLane="best" from="-480276564" to="26234533#0"/>
    <trip id="truck9" type="truck_truck" depart="12.12" departLane="best" from="491638583#2" to="-100646245#3"/>
    <trip id="truck10" type="truck_truck" depart="13.47" departLane="best" from="491631422#9" to="479797295"/>
    <trip id="truck11" type="truck_truck" depart="14.81" departLane="best" departSpeed="max" from="1036346145" to="-479621752#1"/>
    <trip id="truck12" type="truck_truck" depart="16.16" departLane="best" from="773876912#1" to="1036341350#4"/>
    <trip id="truck13" type="truck_truck" depart="17.51" departLane="best" from="-248698668#11" to="-255416251#1"/>
    <trip id="truck14" type="truck_truck" depart="18.85" departLane="best" from="621270415" to="320758139"/>
    <!--<trip id="truck16" type="truck_truck" depart="21.55" departLane="best" from="255416150" to="854000999#1"/>-->
    <trip id="truck17" type="truck_truck" depart="22.89" departLane="best" from="1040942048" to="255416142#0"/>
    <trip id="truck18" type="truck_truck" depart="24.24" departLane="best" from="61163710#13" to="321073946"/>
    <trip id="truck19" type="truck_truck" depart="25.59" departLane="best" from="622873934#9" to="25934337#3"/>
    <trip id="truck20" type="truck_truck" depart="26.93" departLane="best" departSpeed="max" from="479797324#0" to="-178774202#1"/>
    <trip id="truck21" type="truck_truck" depart="28.28" departLane="best" from="-480284577" to="100646245#1"/>
    <trip id="truck23" type="truck_truck" depart="30.97" departLane="best" from="-255416167" to="-684135634#2"/>
    <trip id="truck24" type="truck_truck" depart="32.32" departLane="best" from="479613101#1" to="1039159932#1"/>
    <trip id="truck25" type="truck_truck" depart="33.67" departLane="best" from="1040603779" to="-480282280"/>
    <trip id="truck26" type="truck_truck" depart="35.01" departLane="best" from="-625413768#0" to="742718536#2"/>
    <trip id="truck27" type="truck_truck" depart="36.36" departLane="best" departSpeed="max" from="479621752#0" to="321071861#2"/>
    <trip id="truck28" type="truck_truck" depart="37.71" departLane="best" from="-479621763#9" to="479816722#1"/>
    <trip id="truck30" type="truck_truck" depart="40.40" departLane="best" from="901285521" to="475316658#2"/>
    <trip id="truck31" type="truck_truck" depart="41.75" departLane="best" from="618364867#1" to="481854596#3"/>
    <trip id="truck34" type="truck_truck" depart="45.79" departLane="best" departSpeed="max" from="-480250299#1" to="742727472"/>
    <trip id="truck36" type="truck_truck" depart="48.48" departLane="best" from="479621763#11" to="1041542913"/>
    <trip id="truck37" type="truck_truck" depart="49.83" departLane="best" from="684122862#2" to="159453450#3"/>
    <trip id="truck38" type="truck_truck" depart="51.17" departLane="best" from="-623891515#0" to="-491638583#9"/>
    <trip id="truck40" type="truck_truck" depart="53.87" departLane="best" departSpeed="max" from="320755659#0" to="658079962#0"/>
    <trip id="truck41" type="truck_truck" depart="55.22" departLane="best" from="1042449167" to="-480284576#4"/>
    <trip id="truck42" type="truck_truck" depart="56.56" departLane="best" from="994962124#6" to="216065938#2"/>
    <trip id="truck43" type="truck_truck" depart="57.91" departLane="best" departSpeed="max" from="-248698667#1" to="-178774212#0"/>
    <trip id="truck44" type="truck_truck" depart="59.26" departLane="best" from="-255416245#1" to="379986768"/>
    <trip id="truck47" type="truck_truck" depart="63.30" departLane="best" from="994962124#2" to="235427542#4"/>
    <trip id="truck48" type="truck_truck" depart="64.64" departLane="best" from="854001001#0" to="622873934#0"/>
    <trip id="truck49" type="truck_truck" depart="65.99" departLane="best" from="-100646264#1" to="479797348#1"/>
    <trip id="truck51" type="truck_truck" depart="68.68" departLane="best" from="-625413768#0" to="475319370"/>
    <trip id="truck52" type="truck_truck" depart="70.03" departLane="best" from="-255416251#2" to="156148402#2"/>
    <trip id="truck53" type="truck_truck" depart="71.38" departLane="best" from="159455874#3" to="765467136"/>
    <trip id="truck54" type="truck_truck" depart="72.72" departLane="best" from="623891508#5" to="-623128866#0"/>
    <trip id="truck55" type="truck_truck" depart="74.07" departLane="best" from="224737852#5" to="-479797310#4"/>
    <trip id="truck56" type="truck_truck" depart="75.42" departLane="best" from="665453549" to="623134300"/>
    <trip id="truck57" type="truck_truck" depart="76.76" departLane="best" from="100646260#3" to="475316653#5"/>
    <trip id="truck58" type="truck_truck" depart="78.11" departLane="best" departSpeed="max" from="323563856" to="-479621751#0"/>
    <trip id="truck63" type="truck_truck" depart="84.84" departLane="best" from="623891515#1" to="61163710#2"/>
    <trip id="truck64" type="truck_truck" depart="86.19" departLane="best" from="1032987570#2" to="-216065938#4"/>
    <trip id="truck65" type="truck_truck" depart="87.54" departLane="best" from="623891514" to="742727484#3"/>
    <trip id="truck68" type="truck_truck" depart="91.58" departLane="best" from="178774196#2" to="248698673#3"/>
    <trip id="truck69" type="truck_truck" depart="92.92" departLane="best" from="-623891515#0" to="623474397#0"/>
    <trip id="truck70" type="truck_truck" depart="94.27" departLane="best" from="156148401#5" to="-480282284"/>
    <trip id="truck73" type="truck_truck" depart="98.31" departLane="best" from="994962122" to="479613108#1"/>
    <trip id="truck74" type="truck_truck" depart="99.66" departLane="best" from="156148432#1" to="224737852#6"/>
    <trip id="truck76" type="truck_truck" depart="102.35" departLane="best" departSpeed="max" from="-480292013" to="-480284577"/>
    <trip id="truck79" type="truck_truck" depart="106.39" departLane="best" from="-486831708#1" to="479621774#1"/>
    <trip id="truck81" type="truck_truck" depart="109.08" departLane="best" from="742718536#1" to="256157285"/>
    <trip id="truck82" type="truck_truck" depart="110.43" departLane="best" from="178774191#1" to="486831708#2"/>
    <trip id="truck84" type="truck_truck" depart="113.12" departLane="best" departSpeed="max" from="-248698670#2" to="156148398#1"/>
    <trip id="truck85" type="truck_truck" depart="114.47" departLane="best" from="156148401#6" to="159455875#1"/>
    <trip id="truck86" type="truck_truck" depart="115.82" departLane="best" from="480250293#1" to="479751369#7"/>
    <trip id="truck88" type="truck_truck" depart="118.51" departLane="best" from="1042676041" to="1036341354#0"/>
    <trip id="truck89" type="truck_truck" depart="119.86" departLane="best" from="622873934#9" to="-538068339#5"/>
    <trip id="truck90" type="truck_truck" depart="121.20" departLane="best" from="-479797311#0" to="156148432#1"/>
    <trip id="truck91" type="truck_truck" depart="122.55" departLane="best" from="156148401#1" to="-742727485"/>
    <trip id="truck93" type="truck_truck" depart="125.24" departLane="best" from="159453447#9" to="622873934#2"/>
    <trip id="truck95" type="truck_truck" depart="127.94" departLane="best" from="996026061#1" to="61163715#6"/>
    <trip id="truck97" type="truck_truck" depart="130.63" departLane="best" from="622804127" to="-479797239#1"/>
    <trip id="truck98" type="truck_truck" depart="131.98" departLane="best" from="178774223#1" to="-480283416#1"/>
    <trip id="truck99" type="truck_truck" depart="133.32" departLane="best" from="1042453357" to="-216065940#1"/>
    <trip id="truck100" type="truck_truck" depart="134.67" departLane="best" from="1040942049" to="854052897#3"/>
    <trip id="truck101" type="truck_truck" depart="136.02" departLane="best" from="-623891515#1" to="486825027#2"/>
    <trip id="truck102" type="truck_truck" depart="137.36" departLane="best" from="159455874#7" to="123423117#2"/>
    <trip id="truck104" type="truck_truck" depart="140.06" departLane="best" from="256157283#0" to="479797341#1"/>
    <trip id="truck105" type="truck_truck" depart="141.40" departLane="best" departSpeed="max" from="-479613101#9" to="100646295#0"/>
    <trip id="truck106" type="truck_truck" depart="142.75" departLane="best" from="854000997" to="25934378#1"/>
    <trip id="truck108" type="truck_truck" depart="145.44" departLane="best" departSpeed="max" from="-178774202#2" to="25934381#5"/>
    <trip id="truck109" type="truck_truck" depart="146.79" departLane="best" from="224737854#4" to="622804124#1"/>
    <trip id="truck110" type="truck_truck" depart="148.14" departLane="best" from="-479613108#3" to="773876918"/>
    <trip id="truck111" type="truck_truck" depart="149.48" departLane="best" from="-235427740#0" to="-479797347#0"/>
    <trip id="truck112" type="truck_truck" depart="150.83" departLane="best" from="321071861#0" to="479751865#1"/>
    <trip id="truck113" type="truck_truck" depart="152.18" departLane="best" departSpeed="max" from="-483796488#2" to="-320758141"/>
    <trip id="truck114" type="truck_truck" depart="153.52" departLane="best" from="625413785#3" to="-491638583#8"/>
    <trip id="truck115" type="truck_truck" depart="154.87" departLane="best" from="320758140#1" to="321073946"/>
    <trip id="truck116" type="truck_truck" depart="156.22" departLane="best" from="156148397#2" to="25934381#4"/>
    <trip id="truck117" type="truck_truck" depart="157.57" departLane="best" departSpeed="max" from="248698667#0" to="742718533"/>
    <trip id="truck118" type="truck_truck" depart="158.91" departLane="best" departSpeed="max" from="-480250293#2" to="479797327#3"/>
    <trip id="truck119" type="truck_truck" depart="160.26" departLane="best" from="-486831710#0" to="1041542914#0"/>
    <trip id="truck122" type="truck_truck" depart="164.30" departLane="best" from="-216065938#4" to="159453450#2"/>
    <trip id="truck123" type="truck_truck" depart="165.65" departLane="best" from="-216065940#1" to="-480283416#0"/>
    <trip id="truck124" type="truck_truck" depart="166.99" departLane="best" from="-623891515#1" to="742718532#4"/>
    <trip id="truck125" type="truck_truck" depart="168.34" departLane="best" from="625351513" to="623891504#5"/>
    <trip id="truck126" type="truck_truck" depart="169.69" departLane="best" from="1040591006#6" to="-479621763#10"/>
    <trip id="truck127" type="truck_truck" depart="171.03" departLane="best" departSpeed="max" from="61163715#0" to="479797310#10"/>
    <trip id="truck128" type="truck_truck" depart="172.38" departLane="best" departSpeed="max" from="379986688#0" to="854052902"/>
    <trip id="truck129" type="truck_truck" depart="173.73" departLane="best" from="479751369#6" to="742718538#5"/>
    <trip id="truck130" type="truck_truck" depart="175.07" departLane="best" from="-379986688#5" to="-320755658#1"/>
    <trip id="truck131" type="truck_truck" depart="176.42" departLane="best" from="-658095569#3" to="320758139"/>
    <trip id="truck133" type="truck_truck" depart="179.11" departLane="best" from="475319390#0" to="-623128866#0"/>
    <trip id="truck135" type="truck_truck" depart="181.81" departLane="best" from="618371800" to="-255416224#3"/>
    <trip id="truck137" type="truck_truck" depart="184.50" departLane="best" departSpeed="max" from="-100646234" to="481854583#3"/>
    <trip id="truck140" type="truck_truck" depart="188.54" departLane="best" from="156148407#2" to="-100646258#1"/>
    <trip id="truck141" type="truck_truck" depart="189.89" departLane="best" departSpeed="max" from="-234517427#4" to="625313299"/>
    <trip id="truck142" type="truck_truck" depart="191.23" departLane="best" from="61163715#10" to="25934381#0"/>
    <trip id="truck144" type="truck_truck" depart="193.93" departLane="best" from="490216937#1" to="622873934#0"/>
    <trip id="truck146" type="truck_truck" depart="196.62" departLane="best" from="-538068339#1" to="-25934355#1"/>
    <trip id="truck148" type="truck_truck" depart="199.31" departLane="best" from="1042695124" to="321073948"/>
    <trip id="truck149" type="truck_truck" depart="200.66" departLane="best" from="-479613101#8" to="742718527#0"/>
    <trip id="truck150" type="truck_truck" depart="202.01" departLane="best" from="622902051#0" to="854001005#1"/>
    <trip id="truck151" type="truck_truck" depart="203.35" departLane="best" from="491638583#6" to="623891513"/>
    <trip id="truck152" type="truck_truck" depart="204.70" departLane="best" departSpeed="max" from="-1039220886" to="480250290"/>
    <trip id="truck154" type="truck_truck" depart="207.39" departLane="best" from="491628727#1" to="622880033"/>
    <trip id="truck155" type="truck_truck" depart="208.74" departLane="best" from="491638583#6" to="-623891515#1"/>
    <trip id="truck156" type="truck_truck" depart="210.09" departLane="best" departSpeed="max" from="490151559" to="-25934385#0"/>
    <trip id="truck158" type="truck_truck" depart="212.78" departLane="best" from="159455892#5" to="1032987585"/>
    <trip id="truck159" type="truck_truck" depart="214.13" departLane="best" from="490216937#0" to="-483726628#3"/>
    <trip id="truck160" type="truck_truck" depart="215.47" departLane="best" departSpeed="max" from="-1038286772" to="-480250295#0"/>
    <trip id="truck161" type="truck_truck" depart="216.82" departLane="best" from="1036341350#2" to="622880034"/>
    <trip id="truck163" type="truck_truck" depart="219.51" departLane="best" from="479621745#0" to="1042254212#1"/>
    <trip id="truck165" type="truck_truck" depart="222.21" departLane="best" from="742718539#0" to="-320755658#1"/>
    <trip id="truck166" type="truck_truck" depart="223.55" departLane="best" from="854001000#0" to="-479797310#4"/>
    <trip id="truck167" type="truck_truck" depart="224.90" departLane="best" from="775122578#6" to="-623891502#0"/>
    <trip id="truck168" type="truck_truck" depart="226.25" departLane="best" departSpeed="max" from="-255416229#3" to="156148402#1"/>
    <trip id="truck170" type="truck_truck" depart="228.94" departLane="best" departSpeed="max" from="323563821#0" to="224737848#1"/>
    <trip id="truck171" type="truck_truck" depart="230.29" departLane="best" departSpeed="max" from="1041504064" to="25931950-AddedOffRampEdge"/>
    <trip id="truck172" type="truck_truck" depart="231.63" departLane="best" from="-61163715#6" to="479797313#0"/>
    <trip id="truck173" type="truck_truck" depart="232.98" departLane="best" from="-100646220#0" to="696730628#1"/>
    <trip id="truck177" type="truck_truck" depart="238.37" departLane="best" from="479751369#8" to="1036099957"/>
    <trip id="truck178" type="truck_truck" depart="239.71" departLane="best" from="1036062886#1" to="618371802"/>
    <trip id="truck179" type="truck_truck" depart="241.06" departLane="best" departSpeed="max" from="479812147#0" to="1032665742"/>
    <trip id="truck181" type="truck_truck" depart="243.75" departLane="best" from="1042676040" to="100646269#0"/>
    <trip id="truck184" type="truck_truck" depart="247.79" departLane="best" from="-100646217#0" to="100646220#3"/>
    <trip id="truck185" type="truck_truck" depart="249.14" departLane="best" from="156148418" to="25934378#3"/>
    <trip id="truck186" type="truck_truck" depart="250.49" departLane="best" from="479621758#5" to="159455874#5"/>
    <trip id="truck187" type="truck_truck" depart="251.83" departLane="best" from="159453447#4" to="-480283416#0"/>
    <trip id="truck188" type="truck_truck" depart="253.18" departLane="best" from="178774191#2" to="658095569#2"/>
    <trip id="truck189" type="truck_truck" depart="254.53" departLane="best" from="490216937#1" to="-479797258#4"/>
    <trip id="truck190" type="truck_truck" depart="255.87" departLane="best" from="-248698662" to="224737852#0"/>
    <trip id="truck191" type="truck_truck" depart="257.22" departLane="best" from="475319376" to="1036341350#0"/>
    <trip id="truck194" type="truck_truck" depart="261.26" departLane="best" from="-479816725#0" to="-145126358#1"/>
    <trip id="truck195" type="truck_truck" depart="262.61" departLane="best" from="-490622218#1" to="166563426#3"/>
    <trip id="truck197" type="truck_truck" depart="265.30" departLane="best" from="123423117#6" to="47070283#0"/>
    <trip id="truck198" type="truck_truck" depart="266.65" departLane="best" from="-479797345#1" to="479797283#6"/>
    <trip id="truck199" type="truck_truck" depart="268.00" departLane="best" from="479621763#12" to="-100646245#1"/>
    <trip id="truck202" type="truck_truck" depart="272.04" departLane="best" from="-479797239#0" to="773159597#2"/>
    <trip id="truck203" type="truck_truck" depart="273.38" departLane="best" from="-538068339#0" to="618371803"/>
    <trip id="truck204" type="truck_truck" depart="274.73" departLane="best" from="159455875#1" to="491628727#0"/>
    <trip id="truck206" type="truck_truck" depart="277.42" departLane="best" from="321071861#1" to="765449928"/>
    <trip id="truck207" type="truck_truck" depart="278.77" departLane="best" from="625413787" to="321073225#4"/>
    <trip id="truck208" type="truck_truck" depart="280.12" departLane="best" departSpeed="max" from="479812147#0" to="216060954#0"/>
    <trip id="truck210" type="truck_truck" depart="282.81" departLane="best" from="658095569#2" to="480250296#3"/>
    <trip id="truck211" type="truck_truck" depart="284.16" departLane="best" from="178774196#0" to="-622804129#0"/>
    <trip id="truck212" type="truck_truck" depart="285.50" departLane="best" from="-491638583#4" to="475316653#1"/>
    <trip id="truck213" type="truck_truck" depart="286.85" departLane="best" from="481854583#4" to="234517427#4"/>
    <trip id="truck215" type="truck_truck" depart="289.54" departLane="best" from="-235427542#2" to="100646217#4"/>
    <trip id="truck216" type="truck_truck" depart="290.89" departLane="best" from="-658095569#1" to="1036076521"/>
    <trip id="truck217" type="truck_truck" depart="292.24" departLane="best" departSpeed="max" from="-480292013" to="479797282#3"/>
    <trip id="truck219" type="truck_truck" depart="294.93" departLane="best" from="145126347" to="-480252898"/>
    <trip id="truck220" type="truck_truck" depart="296.28" departLane="best" from="156148397#5" to="665446768"/>
    <trip id="truck221" type="truck_truck" depart="297.62" departLane="best" departSpeed="max" from="320755659#0" to="479797283#4"/>
    <trip id="truck224" type="truck_truck" depart="301.66" departLane="best" departSpeed="max" from="1038108482" to="480252897#1"/>
    <trip id="truck225" type="truck_truck" depart="303.01" departLane="best" departSpeed="max" from="622809059#0" to="765467135"/>
    <trip id="truck226" type="truck_truck" depart="304.36" departLane="best" from="156148397#2" to="480250304"/>
    <trip id="truck228" type="truck_truck" depart="307.05" departLane="best" from="-480276564" to="-480284576#4"/>
    <trip id="truck229" type="truck_truck" depart="308.40" departLane="best" from="1036341360#1" to="479797237#0"/>
    <trip id="truck230" type="truck_truck" depart="309.74" departLane="best" from="1042693363#0" to="-479772308#0"/>
    <trip id="truck231" type="truck_truck" depart="311.09" departLane="best" from="178774189#10" to="-47070283#4"/>
    <trip id="truck233" type="truck_truck" depart="313.78" departLane="best" from="1041542915#1" to="255416229#3"/>
    <trip id="truck234" type="truck_truck" depart="315.13" departLane="best" departSpeed="max" from="-1040603784" to="475319377"/>
    <trip id="truck235" type="truck_truck" depart="316.48" departLane="best" from="-379986778#0" to="159453472#4"/>
    <trip id="truck236" type="truck_truck" depart="317.82" departLane="best" from="-178774191#0" to="1040925855#4"/>
    <trip id="truck239" type="truck_truck" depart="321.86" departLane="best" from="480284570" to="61163710#3"/>
    <trip id="truck240" type="truck_truck" depart="323.21" departLane="best" from="-573745607" to="-255416150"/>
    <trip id="truck242" type="truck_truck" depart="325.90" departLane="best" from="996026062#1" to="1036352686"/>
    <trip id="truck244" type="truck_truck" depart="328.60" departLane="best" from="479621757#0" to="480252897#2"/>
    <trip id="truck247" type="truck_truck" depart="332.64" departLane="best" departSpeed="max" from="-320755659#1" to="479621774#2"/>
    <trip id="truck248" type="truck_truck" depart="333.98" departLane="best" from="25931937" to="-480284576#0"/>
    <trip id="truck250" type="truck_truck" depart="336.68" departLane="best" from="-479621763#10" to="321071860"/>
    <trip id="truck253" type="truck_truck" depart="340.72" departLane="best" departSpeed="max" from="-255416229#3" to="-156148407#0"/>
    <trip id="truck255" type="truck_truck" depart="343.41" departLane="best" from="773876919#3" to="1041542915#0"/>
    <trip id="truck257" type="truck_truck" depart="346.10" departLane="best" from="479797302" to="379986754"/>
    <trip id="truck259" type="truck_truck" depart="348.80" departLane="best" from="-25934381#4" to="854052896#1"/>
    <trip id="truck260" type="truck_truck" depart="350.14" departLane="best" departSpeed="max" from="489622223#0" to="1036342983"/>
    <trip id="truck261" type="truck_truck" depart="351.49" departLane="best" from="156148410" to="1040591006#0"/>
    <trip id="truck262" type="truck_truck" depart="352.84" departLane="best" from="235424958#4" to="1036341357#1"/>
    <trip id="truck265" type="truck_truck" depart="356.88" departLane="best" from="479613101#0" to="61163672"/>
    <trip id="truck266" type="truck_truck" depart="358.22" departLane="best" from="479797327#2" to="156148402#4"/>
    <trip id="truck267" type="truck_truck" depart="359.57" departLane="best" departSpeed="max" from="480250298#0" to="775122578#6"/>
    <trip id="truck268" type="truck_truck" depart="360.92" departLane="best" departSpeed="max" from="-625452610" to="491638583#0"/>
    <trip id="truck270" type="truck_truck" depart="363.61" departLane="best" from="156148427" to="479816725#1"/>
    <trip id="truck271" type="truck_truck" depart="364.96" departLane="best" departSpeed="max" from="-625413768#3" to="622804124#1"/>
    <trip id="truck272" type="truck_truck" depart="366.31" departLane="best" from="61163710#3" to="-255416215#1"/>
    <trip id="truck273" type="truck_truck" depart="367.65" departLane="best" departSpeed="max" from="625397297" to="-491638583#1"/>
    <trip id="truck274" type="truck_truck" depart="369.00" departLane="best" from="1040942049" to="-156148422#4"/>
    <trip id="truck275" type="truck_truck" depart="370.35" departLane="best" from="622804129#1" to="-479797311#7"/>
    <trip id="truck277" type="truck_truck" depart="373.04" departLane="best" departSpeed="max" from="1036346145" to="623891510"/>
    <trip id="truck279" type="truck_truck" depart="375.73" departLane="best" from="-100646260#0" to="743386900"/>
    <trip id="truck280" type="truck_truck" depart="377.08" departLane="best" from="-248698663#1" to="479797347#2"/>
    <trip id="truck281" type="truck_truck" depart="378.43" departLane="best" from="216060954#1" to="480282281#1"/>
    <trip id="truck282" type="truck_truck" depart="379.77" departLane="best" from="479797302" to="479613101#3"/>
    <trip id="truck283" type="truck_truck" depart="381.12" departLane="best" from="216065930#2" to="490192688#6"/>
    <trip id="truck284" type="truck_truck" depart="382.47" departLane="best" from="479797305#2" to="1032987588"/>
    <trip id="truck285" type="truck_truck" depart="383.81" departLane="best" departSpeed="max" from="320755658#0" to="159457890#3"/>
    <trip id="truck286" type="truck_truck" depart="385.16" departLane="best" from="248698673#2" to="123423119#2"/>
    <trip id="truck288" type="truck_truck" depart="387.85" departLane="best" from="479797319#0" to="-625452612"/>
    <trip id="truck290" type="truck_truck" depart="390.55" departLane="best" from="-479797318#1" to="-320758140#1"/>
    <trip id="truck291" type="truck_truck" depart="391.89" departLane="best" from="255416142#7" to="480284576#2"/>
    <trip id="truck293" type="truck_truck" depart="394.59" departLane="best" from="178774220#2" to="479812137#1"/>
    <trip id="truck294" type="truck_truck" depart="395.93" departLane="best" from="854040751" to="235424958#6"/>
    <trip id="truck295" type="truck_truck" depart="397.28" departLane="best" departSpeed="max" from="-856908280" to="-256157278#0"/>
    <trip id="truck296" type="truck_truck" depart="398.63" departLane="best" from="-479797345#0" to="-483726628#2"/>
    <trip id="truck299" type="truck_truck" depart="402.67" departLane="best" from="854030732" to="255416142#4"/>
    <trip id="truck300" type="truck_truck" depart="404.01" departLane="best" from="479797311#7" to="-47070283#0"/>
    <trip id="truck302" type="truck_truck" depart="406.71" departLane="best" from="178774189#17" to="156148418"/>
    <trip id="truck303" type="truck_truck" depart="408.05" departLane="best" from="-479797300#3" to="-208513727#1"/>
    <trip id="truck304" type="truck_truck" depart="409.40" departLane="best" from="742727470" to="166563429#7"/>
    <trip id="truck305" type="truck_truck" depart="410.75" departLane="best" from="583797089#0" to="1042330334"/>
    <trip id="truck306" type="truck_truck" depart="412.09" departLane="best" from="-234517427#2" to="390383583#4"/>
    <trip id="truck307" type="truck_truck" depart="413.44" departLane="best" from="-178774197#0" to="-479621745#2"/>
    <trip id="truck308" type="truck_truck" depart="414.79" departLane="best" from="994962121#1" to="-320758120"/>
    <trip id="truck309" type="truck_truck" depart="416.13" departLane="best" from="481854581#0" to="321071860"/>
    <trip id="truck311" type="truck_truck" depart="418.83" departLane="best" departSpeed="max" from="248698667#0" to="159453447#11"/>
    <trip id="truck312" type="truck_truck" depart="420.17" departLane="best" from="159453447#8" to="622873931#8"/>
    <trip id="truck313" type="truck_truck" depart="421.52" departLane="best" from="903284464" to="1032987586"/>
    <trip id="truck316" type="truck_truck" depart="425.56" departLane="best" departSpeed="max" from="-480250296#3" to="-480282282"/>
    <trip id="truck318" type="truck_truck" depart="428.25" departLane="best" from="-100646220#3" to="159453447#11"/>
    <trip id="truck319" type="truck_truck" depart="429.60" departLane="best" from="320758130#2" to="100646248#2"/>
    <trip id="truck320" type="truck_truck" depart="430.95" departLane="best" from="-480475790#0" to="479797311#2"/>
    <trip id="truck321" type="truck_truck" depart="432.29" departLane="best" from="479797319#0" to="159453448#0"/>
    <trip id="truck322" type="truck_truck" depart="433.64" departLane="best" from="479797286" to="696730624"/>
    <trip id="truck323" type="truck_truck" depart="434.99" departLane="best" departSpeed="max" from="490165001#0" to="379986745"/>
    <trip id="truck324" type="truck_truck" depart="436.33" departLane="best" from="479751367#0" to="742718532#5"/>
    <trip id="truck328" type="truck_truck" depart="441.72" departLane="best" from="-479621757#0" to="1033968712"/>
    <trip id="truck330" type="truck_truck" depart="444.41" departLane="best" departSpeed="max" from="100639942#0" to="-379986746#1"/>
    <trip id="truck332" type="truck_truck" depart="447.11" departLane="best" from="216065938#4" to="-255416142#2"/>
    <trip id="truck333" type="truck_truck" depart="448.45" departLane="best" from="-156148432#0" to="156148401#1"/>
    <trip id="truck335" type="truck_truck" depart="451.15" departLane="best" departSpeed="max" from="-248698667#1" to="773876919#5"/>
    <trip id="truck337" type="truck_truck" depart="453.84" departLane="best" from="765467135" to="996026062#0"/>
    <trip id="truck338" type="truck_truck" depart="455.19" departLane="best" from="479797247" to="-625397297"/>
    <trip id="truck339" type="truck_truck" depart="456.53" departLane="best" from="-156148432#1" to="480276563"/>
    <trip id="truck340" type="truck_truck" depart="457.88" departLane="best" from="178774189#4" to="479613108#5"/>
    <trip id="truck341" type="truck_truck" depart="459.23" departLane="best" from="684128578#3" to="-479797311#6"/>
    <trip id="truck342" type="truck_truck" depart="460.57" departLane="best" departSpeed="max" from="320755659#0" to="475316645#2"/>
    <trip id="truck343" type="truck_truck" depart="461.92" departLane="best" from="216065937#0" to="-255416224#0"/>
    <trip id="truck345" type="truck_truck" depart="464.62" departLane="best" from="1036341350#6" to="479797282#2"/>
    <trip id="truck346" type="truck_truck" depart="465.96" departLane="best" departSpeed="max" from="100639942#0" to="742727481"/>