<?xml version="1.0" encoding="UTF-8"?>

<!-- generated on 2022-06-12 14:11:02 by Eclipse SUMO netedit Version 1.13.0
-->

<additional xmlns:xsi="http://www.w3.org/2001/XMLSchema-instance" xsi:noNamespaceSchemaLocation="http://sumo.dlr.de/xsd/additional_file.xsd">
    <taz id="taz_0" shape="9098.12,5532.14 9102.63,5353.22 9545.44,5369.00 9531.16,5562.22 9098.12,5532.14" color="blue">
        <tazSource id="1041521605" weight="1.00"/>
        <tazSink id="1041521605" weight="1.00"/>
        <tazSource id="1041542911" weight="1.00"/>
        <tazSink id="1041542911" weight="1.00"/>
        <tazSource id="1042716328" weight="1.00"/>
        <tazSink id="1042716328" weight="1.00"/>
        <tazSource id="25931033" weight="1.00"/>
        <tazSink id="25931033" weight="1.00"/>
        <tazSource id="623134300" weight="1.00"/>
        <tazSink id="623134300" weight="1.00"/>
        <tazSource id="765449928" weight="1.00"/>
        <tazSink id="765449928" weight="1.00"/>
    </taz>
    <taz id="taz_1" shape="8557.58,6365.14 8769.58,6363.64 8732.75,6626.02 8489.91,6595.19 8557.58,6365.14" color="blue">
        <tazSource id="1036342983" weight="1.00"/>
        <tazSink id="1036342983" weight="1.00"/>
        <tazSource id="1036346145" weight="1.00"/>
        <tazSink id="1036346145" weight="1.00"/>
        <tazSource id="25935497" weight="1.00"/>
        <tazSink id="25935497" weight="1.00"/>
        <tazSource id="25935500" weight="1.00"/>
        <tazSink id="25935500" weight="1.00"/>
    </taz>
    <taz id="taz_10" shape="4624.39,5398.36 4574.88,5227.18 4214.14,5396.94 4395.22,5541.23 4624.39,5398.36" color="blue">
        <tazSource id="-1036077437#2" weight="1.00"/>
        <tazSink id="-1036077437#2" weight="1.00"/>
        <tazSource id="-320755659#1" weight="1.00"/>
        <tazSink id="-320755659#1" weight="1.00"/>
        <tazSource id="1036077437#2" weight="1.00"/>
        <tazSink id="1036077437#2" weight="1.00"/>
        <tazSource id="1036077821" weight="1.00"/>
        <tazSink id="1036077821" weight="1.00"/>
        <tazSource id="1040260533" weight="1.00"/>
        <tazSink id="1040260533" weight="1.00"/>
        <tazSource id="320755659#1" weight="1.00"/>
        <tazSink id="320755659#1" weight="1.00"/>
    </taz>
    <taz id="taz_11" shape="4931.37,6525.83 5129.42,6425.39 5436.40,7115.74 5224.20,7114.32 4931.37,6525.83" color="blue">
        <tazSource id="1036052086#2" weight="1.00"/>
        <tazSink id="1036052086#2" weight="1.00"/>
        <tazSource id="323563821#0" weight="1.00"/>
        <tazSink id="323563821#0" weight="1.00"/>
    </taz>
    <taz id="taz_12" shape="177.64,5288.12 -54.73,5082.92 -223.72,5236.82 35.80,5432.97 177.64,5288.12" color="blue">
        <tazSource id="755072661" weight="1.00"/>
        <tazSink id="755072661" weight="1.00"/>
        <tazSource id="755072662" weight="1.00"/>
        <tazSink id="755072662" weight="1.00"/>
    </taz>
    <taz id="taz_13" shape="17113.07,109.91 17706.15,349.67 17655.67,-35.20 17087.83,-211.86 17113.07,109.91" color="blue">
        <tazSource id="755072661" weight="1.00"/>
        <tazSink id="755072661" weight="1.00"/>
        <tazSource id="755072662" weight="1.00"/>
        <tazSink id="755072662" weight="1.00"/>
    </taz>
    <taz id="taz_14" shape="5838.31,3075.30 6059.14,3113.15 6059.14,2949.11 5611.18,2917.56 5838.31,3075.30" color="blue">
        <tazSource id="857375431#0" weight="1.00"/>
        <tazSink id="857375431#0" weight="1.00"/>
    </taz>
    <taz id="taz_15" shape="9302.13,4955.47 9384.15,4791.43 9668.07,4955.47 9541.88,5069.04 9302.13,4955.47" color="blue">
        <tazSource id="-100639942#0" weight="1.00"/>
        <tazSink id="-100639942#0" weight="1.00"/>
        <tazSource id="100639942#0" weight="1.00"/>
        <tazSink id="100639942#0" weight="1.00"/>
    </taz>
    <taz id="taz_16" shape="6349.37,6394.00 6557.58,6280.43 6494.48,6640.06 6330.44,6595.90 6349.37,6394.00" color="blue">
        <tazSource id="26234533#2" weight="1.00"/>
        <tazSink id="26234533#2" weight="1.00"/>
        <tazSource id="479797324#0" weight="1.00"/>
        <tazSink id="479797324#0" weight="1.00"/>
    </taz>
    <taz id="taz_2" shape="9230.48,6299.49 9336.58,6191.97 9451.17,6368.80 9289.90,6421.15 9230.48,6299.49" color="blue">
        <tazSource id="-234517427#4" weight="1.00"/>
        <tazSink id="-234517427#4" weight="1.00"/>
        <tazSource id="234517427#4" weight="1.00"/>
        <tazSink id="234517427#4" weight="1.00"/>
    </taz>
    <taz id="taz_3" shape="9253.12,4310.49 9342.24,4364.25 9506.34,4135.08 9377.61,4079.90 9253.12,4310.49" color="blue">
        <tazSource id="1039133060" weight="1.00"/>
        <tazSink id="1039133060" weight="1.00"/>
        <tazSource id="684496714" weight="1.00"/>
        <tazSink id="684496714" weight="1.00"/>
        <tazSource id="854052891" weight="1.00"/>
        <tazSink id="854052891" weight="1.00"/>
        <tazSource id="854052892" weight="1.00"/>
        <tazSink id="854052892" weight="1.00"/>
    </taz>
    <taz id="taz_4" shape="9265.85,3594.68 9369.12,3451.80 9510.58,3577.70 9357.80,3723.41 9265.85,3594.68" color="blue">
        <tazSource id="1042332613" weight="1.00"/>
        <tazSink id="1042332613" weight="1.00"/>
        <tazSource id="658094419#0" weight="1.00"/>
        <tazSink id="658094419#0" weight="1.00"/>
        <tazSource id="696706383#0" weight="1.00"/>
        <tazSink id="696706383#0" weight="1.00"/>
        <tazSource id="742727474" weight="1.00"/>
        <tazSink id="742727474" weight="1.00"/>
    </taz>
    <taz id="taz_5" shape="8540.13,3054.28 8780.63,2972.23 8844.28,3129.26 8579.75,3207.07 8540.13,3054.28" color="blue">
        <tazSource id="-1011007455#0" weight="1.00"/>
        <tazSink id="-1011007455#0" weight="1.00"/>
        <tazSource id="-1042355415" weight="1.00"/>
        <tazSink id="-1042355415" weight="1.00"/>
        <tazSource id="1011007455#0" weight="1.00"/>
        <tazSink id="1011007455#0" weight="1.00"/>
        <tazSource id="1042355415" weight="1.00"/>
        <tazSink id="1042355415" weight="1.00"/>
        <tazSource id="480250287#5" weight="1.00"/>
        <tazSink id="480250287#5" weight="1.00"/>
        <tazSource id="658094419#1" weight="1.00"/>
        <tazSink id="658094419#1" weight="1.00"/>
        <tazSource id="665446766" weight="1.00"/>
        <tazSink id="665446766" weight="1.00"/>
        <tazSource id="696706383#2" weight="1.00"/>
        <tazSink id="696706383#2" weight="1.00"/>
        <tazSource id="994875413#0" weight="1.00"/>
        <tazSink id="994875413#0" weight="1.00"/>
        <tazSource id="994875413#1" weight="1.00"/>
        <tazSink id="994875413#1" weight="1.00"/>
    </taz>
    <taz id="taz_6" shape="6795.87,3252.34 6825.58,3382.48 6967.05,3358.43 6961.39,3214.14 6795.87,3252.34" color="blue">
        <tazSource id="-1041447855#2" weight="1.00"/>
        <tazSink id="-1041447855#2" weight="1.00"/>
        <tazSource id="1041447855#2" weight="1.00"/>
        <tazSink id="1041447855#2" weight="1.00"/>
        <tazSource id="25931909" weight="1.00"/>
        <tazSink id="25931909" weight="1.00"/>
        <tazSource id="489606090" weight="1.00"/>
        <tazSink id="489606090" weight="1.00"/>
        <tazSource id="538068607#1" weight="1.00"/>
        <tazSink id="538068607#1" weight="1.00"/>
        <tazSource id="618364867#0" weight="1.00"/>
        <tazSink id="618364867#0" weight="1.00"/>
        <tazSource id="618364867#1" weight="1.00"/>
        <tazSink id="618364867#1" weight="1.00"/>
    </taz>
    <taz id="taz_7" shape="5079.91,3325.90 5139.32,3299.02 5159.13,3211.31 5077.08,3241.02 5079.91,3325.90" color="blue">
        <tazSource id="1033968712" weight="1.00"/>
        <tazSink id="1033968712" weight="1.00"/>
        <tazSource id="235436489#0" weight="1.00"/>
        <tazSink id="235436489#0" weight="1.00"/>
    </taz>
    <taz id="taz_8" shape="3682.24,4357.17 3805.31,4327.47 3782.68,4249.66 3651.11,4285.03 3682.24,4357.17" color="blue">
        <tazSource id="267535712" weight="1.00"/>
        <tazSink id="267535712" weight="1.00"/>
        <tazSource id="479812147#0" weight="1.00"/>
        <tazSink id="479812147#0" weight="1.00"/>
    </taz>
    <taz id="taz_9" shape="4050.04,4314.74 491.51,4294.93 4153.31,4098.29 3984.97,4174.69 4050.04,4314.74" color="blue">
        <tazSource id="1042324755" weight="1.00"/>
        <tazSink id="1042324755" weight="1.00"/>
        <tazSource id="267535712" weight="1.00"/>
        <tazSink id="267535712" weight="1.00"/>
        <tazSource id="479812147#1" weight="1.00"/>
        <tazSink id="479812147#1" weight="1.00"/>
        <tazSource id="479812147#2" weight="1.00"/>
        <tazSink id="479812147#2" weight="1.00"/>
        <tazSource id="618371794" weight="1.00"/>
        <tazSink id="618371794" weight="1.00"/>
        <tazSource id="618371801" weight="1.00"/>
        <tazSink id="618371801" weight="1.00"/>
        <tazSource id="618371802" weight="1.00"/>
        <tazSink id="618371802" weight="1.00"/>
        <tazSource id="755072661" weight="1.00"/>
        <tazSink id="755072661" weight="1.00"/>
    </taz>
</additional>
