<?xml version="1.0" encoding="UTF-8"?>

<!-- generated on 2022-05-18 13:12:00 by Eclipse SUMO duarouter Version 1.13.0
<configuration xmlns:xsi="http://www.w3.org/2001/XMLSchema-instance" xsi:noNamespaceSchemaLocation="http://sumo.dlr.de/xsd/duarouterConfiguration.xsd">

    <input>
        <net-file value="C:\Users\abdel\Sumo\2022-05-18-13-10-58\ec.net.xml"/>
        <route-files value="C:\Users\abdel\Sumo\2022-05-18-13-10-58\ec.tram.trips.xml"/>
    </input>

    <output>
        <output-file value="routes.rou.xml"/>
        <alternatives-output value="routes.rou.alt.xml"/>
    </output>

    <time>
        <begin value="0"/>
        <end value="3600"/>
    </time>

    <report>
        <no-warnings value="true"/>
        <ignore-errors value="true"/>
        <no-step-log value="true"/>
    </report>

</configuration>
-->

<routes xmlns:xsi="http://www.w3.org/2001/XMLSchema-instance" xsi:noNamespaceSchemaLocation="http://sumo.dlr.de/xsd/routes_file.xsd">
    <vType id="tram_tram" vClass="tram"/>
    <vehicle id="tram2" type="tram_tram" depart="122.11" departLane="best" departSpeed="max">
        <route edges="762107988 762107957#4 762107957#5 762107957#6 762107957#8 762107957#9 762107957#10 762107957#11 684122873 684122874#1 684122874#2 762107958#0 762107959 762107964#1"/>
    </vehicle>
    <vehicle id="tram3" type="tram_tram" depart="183.16" departLane="best">
        <route edges="762108001#2 762108001#3 762108001#4 762108001#5 -1005819189#2 -1005819189#1 -1005819189#0 -762108000#9 -762108000#8 -762108000#7 -762108000#6 -762108000#5 -762108000#4 -762108000#2 -762108000#1 -762108000#0 -684135617 -775384756#7 -775384756#6 -775384756#5 -775384756#4 -775384756#3 -775384756#2 -775384756#1 -775384756#0 -684135616#0 -762107994#4 -762107994#3 -762107994#2 762107997 762107995#2 1005819191 -762107994#0"/>
    </vehicle>
    <vehicle id="tram4" type="tram_tram" depart="244.22" departLane="best">
        <route edges="-770742892#2 -762107939 -770742891#1 -770742891#0 762107937 770742891#1 762107939 770742892#2 770742892#3 770742892#4 770742892#5 762107943#0 762107943#1 -684135607#3 684135608#0 684135608#1 684135608#2 762107954#0 762107954#1 762107954#3 762107957#9 762107957#10 762107957#11 684122873 684122874#1 684122874#2 762107958#0 762107958#1"/>
    </vehicle>
    <vehicle id="tram5" type="tram_tram" depart="305.27" departLane="best" departSpeed="max">
        <route edges="762107994#0 -1005819191 -762107995#2 -762107997 762107994#2 762107994#3 762107994#4 762107994#5 684135616#1 775384756#1 775384756#2 775384756#3 775384756#4 775384756#5 775384756#6 775384756#7 775384756#8 1005819190 762108001#0 762108001#1 762108001#2 762108001#3 762108001#4 762108001#5 -1005819189#2"/>
    </vehicle>
    <vehicle id="tram6" type="tram_tram" depart="366.33" departLane="best" departSpeed="max">
        <route edges="762107994#0 -1005819191 -762107995#2 -762107997 762107994#2 762107994#3 762107994#4 762107994#5 684135616#1 775384756#1 775384756#2 775384756#3 775384756#4 775384756#5 775384756#6 775384756#7 775384756#8 1005819190 762107993 -208527108 -762107991#5 -762107991#4 -762107991#3 -762107991#2 -762107991#1 -762107991#0 -684135610#1 -684135610#0 -762107989 -762107942#1 -762107942#0 762108005#1 -770742882#1 -770742882#0 -770742883#0 -770742891#1 -770742891#0 762107937 770742891#1 770742891#2 770742883#1 770742882#1 770742882#2 762107942#0 762107943#1 -684135607#3 684135608#0 684135608#1 684135608#2 762107954#0 762107954#1 762107954#3 762107957#9 762107957#10 762107957#11 684122873 684122874#1 684122874#2 684122874#3 684122874#4 684122874#5 684122874#6 684122870#1 684122870#2 684122870#3 684122870#4 762107973#0 762107973#1"/>
    </vehicle>
    <vehicle id="tram8" type="tram_tram" depart="488.43" departLane="best" departSpeed="max">
        <route edges="774852773#0 774852773#1 774852773#2 762107957#1 762107957#3 762107957#4 684122860#0 684122860#1 684122860#2 684122860#3 684122860#4"/>
    </vehicle>
    <vehicle id="tram9" type="tram_tram" depart="549.49" departLane="best">
        <route edges="-762107990#0 -762108000#9 -762108000#8 -762108000#7 -762108000#6 -762108000#5 -762108000#4 -762108000#2 -762108000#1 -762108000#0 -684135617 -775384756#7 -775384756#6 -775384756#5 -775384756#4 -775384756#3 -775384756#2 -775384756#1 -775384756#0 -684135616#0 -762107994#4 -762107994#3 -762107994#2 762107997 762107995#2 1005819191 -762107994#0"/>
    </vehicle>
    <vehicle id="tram10" type="tram_tram" depart="610.54" departLane="best">
        <route edges="762107999#0 762107999#1 762107999#2 762107999#3 762107999#4 762107999#5 762107999#6 762107999#7 762107999#8 624520076#1 624520076#2 762107995#1 762107995#2 762107995#3 -762107995#3 -762107995#2 -762107995#1 -762107995#0 -624520076#1 -624520076#0 762107996 684135616#1 775384756#1 775384756#2 775384756#3 775384756#4 775384756#5 775384756#6 775384756#7 775384756#8 1005819190 762107993 -208527108 -762107991#5 -762107991#4 -762107991#3 -762107991#2 -762107991#1 -762107991#0 -684135610#1 -684135610#0 -762107989 -762107942#1 -762107942#0 762108005#1 -770742882#1 -770742882#0 -770742883#0 -770742891#1 -770742891#0 762107937 770742891#1 770742891#2 770742883#1 770742882#1 770742882#2 762107942#0 762107943#1 -684135607#3 684135608#0 684135608#1 684135608#2 762107954#0 762107954#1 762107954#3 762107957#9 762107957#10 762107957#11 684122873 684122874#1 684122874#2 762107958#0 762107958#1"/>
    </vehicle>
    <vehicle id="tram11" type="tram_tram" depart="671.60" departLane="best" departSpeed="max">
        <route edges="762107994#0 -1005819191 -762107995#2 -762107997 762107994#2 762107994#3 762107994#4 762107994#5 684135616#1 775384756#1 775384756#2 775384756#3 775384756#4 775384756#5 775384756#6 775384756#7 775384756#8 1005819190 762107993 -208527108 -762107991#5 -762107991#4 -762107991#3 -762107991#2 -762107991#1 -762107991#0 -684135610#1 -684135610#0 -762107989 -762107942#1 -762107942#0 762108005#1 -770742882#1 -770742882#0 -770742883#0 -770742891#1 -770742891#0 762107937 770742891#1 770742891#2 770742883#1 770742882#1 770742882#2 762107942#0 762107943#1 -684135607#3 684135608#0 684135608#1 684135608#2 762107954#0 762107954#1 762107954#3 762107957#9 762107957#10 762107957#11 684122873 684122874#1 684122874#2 684122874#3 684122874#4 684122874#5 684122874#6 684122870#1 684122870#2 684122870#3 684122870#4 762107973#0 762107973#1 762107972#1 762107981"/>
    </vehicle>
    <vehicle id="tram12" type="tram_tram" depart="732.65" departLane="best" departSpeed="max">
        <route edges="762107953#0 762107953#1 762107953#2 762107953#3 762107953#4 762107953#5 762107953#6 762107951#0 762107951#2 762107951#3 762107951#4 762107952#2 762107952#3 762107952#5 762107952#6 773159594#1 773159594#2"/>
    </vehicle>
    <vehicle id="tram13" type="tram_tram" depart="793.71" departLane="best">
        <route edges="762107994#2 762107994#3 762107994#4 762107994#5 684135616#1 775384756#1 775384756#2 775384756#3 775384756#4 775384756#5 775384756#6 775384756#7 775384756#8 1005819190 762107993 -208527108 -762107991#5 -762107991#4 -762107991#3 -762107991#2 -762107991#1 -762107991#0 -684135610#1 -684135610#0 -762107989 -762107942#1 -762107942#0 762108005#1 -770742882#1 -770742882#0 -770742883#0 -770742891#1 -770742891#0 762107937 770742891#1 770742891#2 770742883#1 770742882#1 770742882#2 762107942#0 762107943#1 -684135607#3 684135608#0 684135608#1 684135608#2 762107954#0 762107954#1 762107954#3 762107957#9 762107957#10 762107957#11 684122873 684122874#1 684122874#2 762107958#0 762107958#1"/>
    </vehicle>
    <vehicle id="tram17" type="tram_tram" depart="1037.92" departLane="best" departSpeed="max">
        <route edges="762107972#0 762107972#1 762107972#2 762107972#3 684122864#1 684122864#2 684122864#3 762107953#4 762107953#5 762107953#6 762107953#7 762107953#9 684122860#4"/>
    </vehicle>
    <vehicle id="tram18" type="tram_tram" depart="1098.98" departLane="best" departSpeed="max">
        <route edges="574609418#0 574609418#1 762107956 762107953#2 762107953#3 762107953#4 762107953#5 762107953#6 762107951#0 762107951#2 762107951#3 762107951#4 762107952#2 762107952#3 762107952#5 762107952#6 773159594#1 773159594#2"/>
    </vehicle>
    <vehicle id="tram19" type="tram_tram" depart="1160.03" departLane="best">
        <route edges="762107995#1 762107995#2 762107995#3 -762107995#3 -762107995#2 -762107997 762107994#2 762107994#3 762107994#4 762107994#5 684135616#1 775384756#1 775384756#2 775384756#3 775384756#4 775384756#5 775384756#6 775384756#7 775384756#8 1005819190 762107993 -208527108 -762107991#5 -762107991#4 -762107991#3 -762107991#2 -762107991#1 -762107991#0 -684135610#1 -684135610#0 -762107989 -762107942#1 -762107942#0 762108005#1 -770742882#1 -770742882#0 -770742883#0 -770742891#1 -770742891#0 762107937 770742891#1 770742891#2 770742883#1 770742882#1 770742882#2 762107942#0 762107943#1 -684135607#3 684135608#0 684135608#1 684135608#2 762107954#0 762107954#1 762107954#3 762107957#9 762107957#10 762107957#11 684122873 684122874#1 684122874#2 684122874#3 684122874#4 684122874#5 684122874#6 684122870#1 684122870#2 684122870#3 684122870#4 762107973#0 762107973#1 762107972#1 762107981"/>
    </vehicle>
    <vehicle id="tram20" type="tram_tram" depart="1221.09" departLane="best" departSpeed="max">
        <route edges="-762107995#3 -762107995#2 -762107997 762107994#2 762107994#3 762107994#4 762107994#5 684135616#1 775384756#1 775384756#2 775384756#3 775384756#4 775384756#5 775384756#6 775384756#7 775384756#8 1005819190 762107993 -208527108 -762107991#5 -762107991#4 -762107991#3 -762107991#2 -762107991#1 -762107991#0 -684135610#1 -684135610#0 -762107989 -762107942#1 -762107942#0 762108005#1 -770742882#1 -770742882#0 -770742883#0 -770742891#1 -770742891#0 762107937 770742891#1 770742891#2 770742883#1 770742882#1 770742882#2 762107942#0 762107943#1 -684135607#3 684135608#0 684135608#1 684135608#2 762107954#0 762107954#1 762107954#3 762107957#9 762107957#10 762107957#11 684122873 684122874#1 684122874#2 684122874#3 684122874#4 684122874#5 684122874#6 684122870#1 684122870#2 684122870#3 684122870#4 684122870#5 684122870#6 762107971 762107970#1 684122864#2 684122864#3 762107953#4 762107953#5 762107953#6 762107953#7 762107953#9 684122860#4"/>
    </vehicle>
    <vehicle id="tram21" type="tram_tram" depart="1282.14" departLane="best">
        <route edges="775384756#4 775384756#5 775384756#6 775384756#7 775384756#8 1005819190 762107993 -208527108 -762107991#5 -762107991#4 -762107991#3 -762107991#2 -762107991#1 -762107991#0 -684135610#1 -684135610#0 -762107989 -762107942#1 -762107942#0 762108005#1 -770742882#1 -770742882#0 -770742883#0 -770742891#1 -770742891#0 762107937 770742891#1 770742891#2 770742883#1 770742882#1 770742882#2 762107942#0 762107943#1 -684135607#3 684135608#0 684135608#1 684135608#2 762107954#0 762107954#1 762107954#3 762107957#9 762107957#10 762107957#11 684122873 684122874#1 684122874#2 762107958#0 762107959 762107964#1"/>
    </vehicle>
    <vehicle id="tram22" type="tram_tram" depart="1343.20" departLane="best">
        <route edges="-775384756#1 -775384756#0 -684135616#0 -762107994#4 -762107994#3 -762107994#2 762107997 762107995#2 762107995#3 -762107995#3 -762107995#2 -762107997 762107994#2 762107994#3 762107994#4 762107994#5 684135616#1 775384756#1 775384756#2 775384756#3 775384756#4 775384756#5 775384756#6 775384756#7 775384756#8 1005819190 762107993 -208527108 -762107991#5 -762107991#4 -762107991#3 -762107991#2 -762107991#1 -762107991#0 -684135610#1"/>
    </vehicle>
    <vehicle id="tram23" type="tram_tram" depart="1404.25" departLane="best">
        <route edges="-770742882#1 -770742882#0 -770742883#0 -770742891#1 -770742891#0 762107937 770742891#1 770742891#2 770742883#1 770742882#1 770742882#2 762107942#0 762107943#1 -684135607#3 684135608#0 684135608#1 684135608#2 684128574#1 762107952#1 762107952#2 762107952#3 762107952#5 762107952#6 773159594#1 773159594#2"/>
    </vehicle>
    <vehicle id="tram27" type="tram_tram" depart="1648.47" departLane="best">
        <route edges="775384756#7 775384756#8 1005819190 762107993 -208527108 -762107991#5 -762107991#4 -762107991#3 -762107991#2 -762107991#1 -762107991#0 -684135610#1 -684135610#0 -762107989 -762107942#1 -762107942#0 762108005#1 -770742882#1 -770742882#0 -770742883#0 -770742891#1 -770742891#0 762107937 770742891#1 770742891#2 770742883#1 770742882#1 770742882#2 762107942#0 762107943#1 -684135607#3 684135608#0 684135608#1 762107944"/>
    </vehicle>
    <vehicle id="tram28" type="tram_tram" depart="1709.52" departLane="best">
        <route edges="-762107991#5 -762107991#4 -762107991#3 -762107991#2 -762107991#1 -762107991#0 -684135610#1 -684135610#0 -762107989 -762107942#1 -762107942#0 762108005#1 -770742882#1 -770742882#0 -770742883#0 -770742891#1 -770742891#0 762107937 770742891#1 770742891#2 770742883#1 770742882#1 770742882#2 762107942#0 762107943#1 -684135607#3 684135608#0 684135608#1 684135608#2 762107954#0 762107954#1 762107954#3 762107957#9 762107957#10 762107957#11 684122873 684122874#1 684122874#2 762107958#0 762107959"/>
    </vehicle>
    <vehicle id="tram29" type="tram_tram" depart="1770.58" departLane="best" departSpeed="max">
        <route edges="762107994#0 -1005819191 -762107995#2 -762107997 762107994#2 762107994#3 762107994#4 762107994#5 684135616#1 775384756#1 775384756#2 775384756#3 775384756#4 775384756#5 775384756#6 775384756#7 775384756#8 1005819190 762107993 -208527108 -762107991#5 -762107991#4 -762107991#3 -762107991#2 -762107991#1 -762107991#0 -684135610#1 -684135610#0 -762107989 -762107942#1 -762107942#0 762108005#1 -770742882#1 -770742882#0 -770742883#0 -770742891#1 -770742891#0 762107937 770742891#1 770742891#2 770742883#1 770742882#1 770742882#2 762107942#0 762107943#1 -684135607#3 684135608#0 684135608#1 684135608#2 762107954#0 762107954#1 762107954#3 762107957#9 762107957#10 762107957#11 684122873 684122874#1 684122874#2 684122874#3 684122874#4 684122874#5 684122874#6"/>
    </vehicle>
    <vehicle id="tram31" type="tram_tram" depart="1892.68" departLane="best">
        <route edges="-1005819191 -762107995#2 -762107997 762107994#2 762107994#3 762107994#4 762107994#5 684135616#1 775384756#1 775384756#2 775384756#3 775384756#4 775384756#5 775384756#6 775384756#7 775384756#8 1005819190 762107993 -208527108 -762107991#5 -762107991#4 -762107991#3 -762107991#2 -762107991#1 -762107991#0 -684135610#1 -684135610#0 -762107989 -762107942#1 -762107942#0 762108005#1 -770742882#1 -770742882#0 -770742883#0 -770742891#1 -770742891#0 762107937 770742891#1 770742891#2 770742883#1 770742882#1 770742882#2 762107942#0 762107943#1 -684135607#3 684135608#0 684135608#1 684135608#2 762107954#0 762107954#1 762107954#3 762107957#9 762107957#10 762107957#11 684122873 684122874#1 684122874#2 684122874#3 684122874#4 684122874#5 684122874#6 684122870#1 684122870#2 684122870#3 684122870#4 762107973#0 762107973#1 762107972#1 762107981"/>
    </vehicle>
    <vehicle id="tram33" type="tram_tram" depart="2014.79" departLane="best" departSpeed="max">
        <route edges="762107937 770742891#1 762107939 770742892#2 770742892#3 770742892#4 770742892#5 762107943#0 762107943#1 -684135607#3 684135608#0 684135608#1 684135608#2 684128574#1 762107952#1 762107952#2 762107952#3 762107952#5 762107952#6 773159594#1 773159594#2"/>
    </vehicle>
    <vehicle id="tram34" type="tram_tram" depart="2075.85" departLane="best">
        <route edges="762108000#5 762108000#6 762108000#7 762108000#8 762108000#9 762107990#0 762107990#1 684135607#0 684135607#1 684135607#2 684135607#3 762108005#0 762108005#1 -770742882#1 -770742882#0 -770742883#0 -770742891#1 -762107938 -770742892#0"/>
    </vehicle>
    <vehicle id="tram36" type="tram_tram" depart="2197.96" departLane="best">
        <route edges="762107990#0 762107990#1 684135607#0 684135607#1 684135607#2 684135607#3 762108005#0 762108005#1 -770742882#1 -770742882#0 -770742883#0 -770742891#1 -770742891#0 762107937 770742891#1 770742891#2 770742883#1 770742882#1 770742882#2 762107942#0 762107943#1 -684135607#3 684135608#0 684135608#1 684135608#2 762107954#0 762107954#1 762107954#3 762107957#9 762107957#10 762107957#11 684122873 684122874#1 684122874#2 684122874#3 684122874#4 684122874#5 684122874#6 684122870#1 684122870#2 684122870#3 684122870#4 684122870#5 684122870#6 762107971 762107970#1 684122864#2 684122864#3 762107953#4 762107953#5"/>
    </vehicle>
    <vehicle id="tram38" type="tram_tram" depart="2320.07" departLane="best">
        <route edges="-1005819189#0 -762108000#9 -762108000#8 -762108000#7 -762108000#6 -762108000#5 -762108000#4 -762108000#2 -762108000#1 -762108000#0 -684135617 -775384756#7 -775384756#6 -775384756#5 -775384756#4 -775384756#3 -775384756#2 -775384756#1 -775384756#0 -684135616#0 -762107994#4 -762107994#3 -762107994#2 762107997 762107995#2 762107995#3 -762107995#3 -762107995#2 -762107997 762107994#2 762107994#3 762107994#4 762107994#5 684135616#1 775384756#1 775384756#2 775384756#3 775384756#4 775384756#5 775384756#6 775384756#7 684135617 762108000#0 762108000#1 762108000#2 762108000#4 762108000#5 762108000#6 762108000#7 762108000#8 762108000#9 1005819189#0 1005819189#1 1005819189#2 1005819189#3 762107991#1 762107991#2 762107991#3 762107991#4 762107991#5 208527108 762107999#0 762107999#1 762107999#2 762107999#3 762107999#4 762107999#5 762107999#6 762107999#7 762107999#8 624520076#1 624520076#2"/>
    </vehicle>
    <vehicle id="tram39" type="tram_tram" depart="2381.12" departLane="best">
        <route edges="762108000#6 762108000#7 762108000#8 762108000#9 1005819189#0 1005819189#1 1005819189#2 -762108001#5 -762108001#4 -762108001#3 -762108001#2 -762108001#1 -762108001#0 -1005819190 -775384756#8 -775384756#7 -775384756#6 -775384756#5 -775384756#4 -775384756#3 -775384756#2 -775384756#1 -775384756#0 -684135616#0 -762107994#4 -762107994#3 -762107994#2 762107997 762107995#2 762107995#3"/>
    </vehicle>
    <vehicle id="tram41" type="tram_tram" depart="2503.23" departLane="best">
        <route edges="762108000#6 762108000#7 762108000#8 762108000#9 762107990#0 762107990#1 684135607#0 684135607#1 684135607#2 684135607#3 762108005#0 762108005#1 -770742882#1 -770742882#0 -770742883#0 -770742891#1 -770742891#0 762107937 770742891#1 770742891#2 770742883#1 770742882#1 770742882#2 762107942#0 762107943#1 -684135607#3 684135608#0 684135608#1 684135608#2 684128574#1 762107952#1 762107952#2 762107952#3 762107952#5 762107952#6 773159594#1 773159594#2"/>
    </vehicle>
    <vehicle id="tram43" type="tram_tram" depart="2625.34" departLane="best">
        <route edges="762107991#0 762107991#1 762107991#2 762107991#3 762107991#4 762107991#5 208527108 -762107993 -1005819190 -775384756#8 -775384756#7 -775384756#6 -775384756#5 -775384756#4 -775384756#3 -775384756#2 -775384756#1 -775384756#0 -684135616#0 -762107994#4 -762107994#3 -762107994#2 762107997 762107995#2 762107995#3 -762107995#3 -762107995#2"/>
    </vehicle>
    <vehicle id="tram45" type="tram_tram" depart="2747.45" departLane="best">
        <route edges="775384756#6 775384756#7 775384756#8 1005819190 762107993 -208527108 -762107991#5 -762107991#4 -762107991#3 -762107991#2 -762107991#1 -762107991#0 -684135610#1 -684135610#0 -762107989 -762107942#1 -762107942#0 762108005#1 -770742882#1 -770742882#0 -770742883#0 -770742891#1 -770742891#0 762107937 770742891#1 770742891#2 770742883#1 770742882#1 770742882#2 762107942#0 762107943#1 -684135607#3 684135608#0 684135608#1 684135608#2 762107954#0 762107954#1 762107954#3 762107957#9 762107957#10 762107957#11 684122873 684122874#1 684122874#2 762107958#0 762107959 762107964#1"/>
    </vehicle>
    <vehicle id="tram46" type="tram_tram" depart="2808.50" departLane="best">
        <route edges="-762107995#1 -762107995#0 -624520076#1 -624520076#0 762107996 684135616#1 775384756#1 775384756#2 775384756#3 775384756#4 775384756#5 775384756#6 775384756#7 775384756#8 1005819190 762107993 -208527108 -762107991#5 -762107991#4 -762107991#3 -762107991#2 -762107991#1 -762107991#0 -684135610#1 -684135610#0 -762107989 -762108004#1 -762108004#0 -770742892#4 -770742892#3 -770742892#2 -762107939 -770742891#1 -770742891#0"/>
    </vehicle>
    <vehicle id="tram47" type="tram_tram" depart="2869.55" departLane="best">
        <route edges="-775384756#2 -775384756#1 -775384756#0 -684135616#0 -762107994#4 -762107994#3 -762107994#2 762107997 762107995#2 762107995#3 -762107995#3 -762107995#2 -762107997 762107994#2 762107994#3 762107994#4 762107994#5 684135616#1 775384756#1 775384756#2 775384756#3 775384756#4 775384756#5 775384756#6 775384756#7 775384756#8 1005819190 762107993 -208527108 -762107991#5 -762107991#4 -762107991#3 -762107991#2 -762107991#1 -762107991#0 -684135610#1 -684135610#0 -762107989 -762108004#1 -762108004#0 -770742892#4 -770742892#3 -770742892#2 -762107939 -770742891#1 -770742891#0"/>
    </vehicle>
    <vehicle id="tram48" type="tram_tram" depart="2930.61" departLane="best">
        <route edges="-775384756#1 -775384756#0 -684135616#0 -762107994#4 -762107994#3 -762107994#2 762107997 762107995#2 762107995#3 -762107995#3 -762107995#2 -762107997 762107994#2 762107994#3 762107994#4 762107994#5 684135616#1 775384756#1 775384756#2 775384756#3 775384756#4 775384756#5 775384756#6 775384756#7 775384756#8 1005819190 762108001#0 762108001#1 762108001#2 762108001#3 762108001#4 762108001#5 762263967#0"/>
    </vehicle>
    <vehicle id="tram49" type="tram_tram" depart="2991.66" departLane="best">
        <route edges="-775384756#5 -775384756#4 -775384756#3 -775384756#2 -775384756#1 -775384756#0 -684135616#0 -762107994#4 -762107994#3 -762107994#2 762107997 762107995#2 762107995#3 -762107995#3 -762107995#2 -762107997 762107994#2 762107994#3 762107994#4 762107994#5 684135616#1 775384756#1 775384756#2 775384756#3 775384756#4 775384756#5 775384756#6 775384756#7 775384756#8 1005819190 762107993 -208527108 -762107991#5 -762107991#4 -762107991#3 -762107991#2 -762107991#1 -762107991#0 -684135610#1 -684135610#0 -762107989 -762107942#1 -762107942#0 762108005#1 -770742882#1 -770742882#0 -770742883#0 -770742891#1 -770742891#0 762107937 770742891#1 770742891#2 770742883#1 770742882#1 770742882#2 762107942#0 762107943#1 -684135607#3 684135608#0 684135608#1 684135608#2 762107954#0 762107954#1 762107954#3 762107957#9 762107957#10 762107957#11 684122873 684122874#1 684122874#2 762107958#0 762107959 762107964#1"/>
    </vehicle>
    <vehicle id="tram50" type="tram_tram" depart="3052.72" departLane="best">
        <route edges="-770742883#0 -770742891#1 -770742891#0 762107937 770742891#1 762107939 770742892#2 770742892#3 770742892#4 770742892#5 762108004#1 762107941 684135610#0 684135610#1 762107991#0 762107991#1 762107991#2 762107991#3 762107991#4 762107991#5 208527108 -762107993 -1005819190 -775384756#8 -775384756#7 -775384756#6 -775384756#5 -775384756#4 -775384756#3 -775384756#2 -775384756#1 -775384756#0 -684135616#0 -762107994#4 -762107994#3 -762107994#2 762107997 762107995#2 762107995#3 -762107995#3 -762107995#2 -762107997"/>
    </vehicle>
    <vehicle id="tram51" type="tram_tram" depart="3113.77" departLane="best" departSpeed="max">
        <route edges="774852773#0 774852773#1 774852773#2 762107957#1 762107957#3 762107957#4 762107957#5"/>
    </vehicle>
    <vehicle id="tram52" type="tram_tram" depart="3174.83" departLane="best" departSpeed="max">
        <route edges="762107937 770742891#1 762107939 770742892#2 770742892#3 770742892#4 770742892#5 762108004#1 762107941 684135610#0 684135610#1 762107991#0 762107991#1 762107991#2 762107991#3 762107991#4 762107991#5 208527108 762107999#0 762107999#1 762107999#2 762107999#3 762107999#4 762107999#5 762107999#6 762107999#7 762107999#8 624520076#1 624520076#2 762107995#1"/>
    </vehicle>
    <vehicle id="tram53" type="tram_tram" depart="3235.88" departLane="best" departSpeed="max">
        <route edges="762107994#0 -1005819191 -762107995#2 -762107997 762107994#2 762107994#3 762107994#4 762107994#5 684135616#1 775384756#1 775384756#2 775384756#3 775384756#4 775384756#5 775384756#6 775384756#7 775384756#8 1005819190 762107993 -208527108 -762107991#5 -762107991#4 -762107991#3 -762107991#2 -762107991#1 -762107991#0 -684135610#1 -684135610#0 -762107989 -762108004#1 -762108004#0 -770742892#4 -770742892#3 -770742892#2 -762107939 -770742891#1 -770742891#0"/>
    </vehicle>
    <vehicle id="tram54" type="tram_tram" depart="3296.93" departLane="best" departSpeed="max">
        <route edges="762107988 762107957#4 762107957#5 762107957#6 762107957#8 762107957#9 762107957#10 762107957#11 684122873 684122874#1 684122874#2 762107958#0 762107959 762107964#1"/>
    </vehicle>
    <vehicle id="tram55" type="tram_tram" depart="3357.99" departLane="best">
        <route edges="775384756#1 775384756#2 775384756#3 775384756#4 775384756#5 775384756#6 775384756#7 775384756#8 1005819190 762108001#0 762108001#1 762108001#2 762108001#3 762108001#4 762108001#5 -1005819189#2 -1005819189#1 -1005819189#0 -762108000#9 -762108000#8 -762108000#7 -762108000#6 -762108000#5 -762108000#4 -762108000#2 -762108000#1 -762108000#0 -684135617 -775384756#7 -775384756#6 -775384756#5 -775384756#4 -775384756#3 -775384756#2 -775384756#1 -775384756#0 -684135616#0 -762107994#4 -762107994#3 -762107994#2 762107997 762107995#2 1005819191 -762107994#0"/>
    </vehicle>
    <vehicle id="tram56" type="tram_tram" depart="3419.04" departLane="best">
        <route edges="762107999#6 762107999#7 762107999#8 624520076#1 624520076#2 762107995#1 762107995#2 762107995#3 -762107995#3 -762107995#2 -762107995#1 -762107995#0 -624520076#1 -624520076#0 762107996 684135616#1 775384756#1 775384756#2 775384756#3 775384756#4 775384756#5 775384756#6 775384756#7 775384756#8 1005819190 762107993 -208527108 -762107991#5 -762107991#4 -762107991#3 -762107991#2 -762107991#1 -762107991#0 -684135610#1 -684135610#0 -762107989 -762108004#1 -762108004#0 -770742892#4 -770742892#3 -770742892#2 -770742892#1 -770742892#0"/>
    </vehicle>
    <vehicle id="tram57" type="tram_tram" depart="3480.10" departLane="best" departSpeed="max">
        <route edges="762107937 770742891#1 762107939 770742892#2 770742892#3 770742892#4 770742892#5 762108004#1 762107941 684135610#0 684135610#1 762107991#0 762107991#1 762107991#2 762107991#3 762107991#4 762107991#5 208527108 -762107993 -1005819190 762107992 762108000#0"/>
    </vehicle>
</routes>
