<?xml version="1.0" encoding="UTF-8"?>
<!-- generated on 2022-05-18 13:11:25.311348 by $Id: ptlines2flows.py v1_3_1+0313-ccb31df3eb jakob.erdmann@dlr.de 2019-09-02 13:26:32 +0200 $ v1_13_0+0000-4b5bca80615
  options: 
-->
<routes xmlns:xsi="http://www.w3.org/2001/XMLSchema-instance" xsi:noNamespaceSchemaLocation="http://sumo.dlr.de/xsd/routes_file.xsd">
    <vType id="pt_bus" vClass="bus" speedFactor="0.95"/>
    <vType id="pt_tram" vClass="tram" speedFactor="1.0"/>
    <vType id="pt_train" vClass="rail"/>
    <vType id="pt_subway" vClass="rail_urban"/>
    <vType id="pt_light_rail" vClass="rail_urban"/>
    <vType id="pt_monorail" vClass="rail"/>
    <vType id="pt_trolleybus" vClass="bus" speedFactor="0.95"/>
    <vType id="pt_minibus" vClass="bus" speedFactor="0.95"/>
    <vType id="pt_share_taxi" vClass="taxi" speedFactor="0.95"/>
    <vType id="pt_aerialway" vClass="bus"/>
    <vType id="pt_ferry" vClass="ship"/>
    <trip id="0_subway_Green:0" type="pt_subway" depart="15" departLane="best" from="755072662" to="755072662">
        <stop busStop="7053545656" duration="30"/>
        <stop busStop="7053545646" duration="30"/>
        <stop busStop="7053545636" duration="30"/>
        <stop busStop="7053545621" duration="30"/>
        <stop busStop="7053545615" duration="30"/>
        <stop busStop="7053545600" duration="30"/>
        <stop busStop="7053545592" duration="30"/>
        <stop busStop="7053545584" duration="30"/>
        <stop busStop="7053545573" duration="30"/>
        <stop busStop="7053545564" duration="30"/>
    </trip>
    <trip id="1_subway_Green:1" type="pt_subway" depart="133" departLane="best" from="755072661" to="755072661">
        <stop busStop="7053538456" duration="30"/>
        <stop busStop="7053538465" duration="30"/>
        <stop busStop="7053538476" duration="30"/>
        <stop busStop="7053538484" duration="30"/>
        <stop busStop="7053545492" duration="30"/>
        <stop busStop="7053545507" duration="30"/>
        <stop busStop="7053545513" duration="30"/>
        <stop busStop="7053545528" duration="30"/>
        <stop busStop="7053545538" duration="30"/>
        <stop busStop="7053545548" duration="30"/>
    </trip>
    <trip id="2_tram_Blue_Line:0" type="pt_tram" depart="165" departLane="best" from="770742892#5" to="762108005#1">
        <stop busStop="6409037859" duration="30"/>
        <stop busStop="6409038194" duration="30"/>
        <stop busStop="6409038201" duration="30"/>
        <stop busStop="6409038405" duration="30"/>
        <stop busStop="6409038272" duration="30"/>
        <stop busStop="6409037874" duration="30"/>
        <stop busStop="7120440202" duration="30"/>
    </trip>
    <trip id="3_tram_Yellow_Line:0" type="pt_tram" depart="383" departLane="best" from="762107994#0" to="762108005#1">
        <stop busStop="9280145752" duration="30"/>
        <stop busStop="6409038478" duration="30"/>
        <stop busStop="9280145749" duration="30"/>
        <stop busStop="9280145747" duration="30"/>
        <stop busStop="9280145745" duration="30"/>
        <stop busStop="9280145743" duration="30"/>
        <stop busStop="9280145763" duration="30"/>
        <stop busStop="9280145761" duration="30"/>
        <stop busStop="9280145741" duration="30"/>
        <stop busStop="7120440202" duration="30"/>
    </trip>
    <trip id="4_tram_Yellow_Line:1" type="pt_tram" depart="441" departLane="best" from="770742892#5" to="762107995#3">
        <stop busStop="6409037859" duration="30"/>
        <stop busStop="6409038194" duration="30"/>
        <stop busStop="6409038201" duration="30"/>
        <stop busStop="6409038223" duration="30"/>
        <stop busStop="6409038254" duration="30"/>
        <stop busStop="6409038432" duration="30"/>
        <stop busStop="6409038441" duration="30"/>
        <stop busStop="6409038451" duration="30"/>
        <stop busStop="6409038477" duration="30"/>
        <stop busStop="5897499227" duration="30"/>
    </trip>
</routes>
